Version8/Distrib/Examples/ADiakoptics/EPRI_Ckt5-G/Torn_Circuit/Line.DSS
New "Line.mdv201_connector" bus1=_mdv_sub_1_lsb bus2=mdv201 length=0.001 r1=0.001 r0=0.001 x1=0.01 x0=0.01 C1=0 C0=0 units=km enabled=true phases=3
New "Line.mdv201_hn_2_793_abc1023346_sw" bus1=mdv201 bus2=mdv201_hn_2_793_abc1023346_int length=0.001 Switch=True units=km enabled=true phases=3
New "Line.mdv201_hn_2_793_abc1023346" bus1=mdv201_hn_2_793_abc1023346_int bus2=1023346 length=0.04572 geometry=3PH_HORIZ_LG_1C-AL_556_19STRAL_556_19STRAL_556_19STRACSR_1/0_6/1 Seasons=1 Ratings=[0,] normamps=619 emergamps=743 units=km enabled=true phases=3
New "Line.sw-hn_2_793_sw" bus1=1023346 bus2=mdv201_796usd_int length=0.001 Switch=True units=km enabled=true phases=3
New "Line.mdv201_796usd" bus1=mdv201_796usd_int bus2=796 length=0.001524 geometry=3PH_HORIZ_LG_1C-BUSBARBUSBARBUSBARBUSBAR Seasons=1 Ratings=[0,] normamps=2000 emergamps=2400 units=km enabled=true phases=3
New "Line.mdv201_hn_2_794_abc791" bus1=796 bus2=791 length=0.0597408 geometry=3PH_HORIZ_LG_1C-AL_556_19STRAL_556_19STRAL_556_19STRACSR_1/0_6/1 Seasons=1 Ratings=[0,] normamps=619 emergamps=743 units=km enabled=true phases=3
New "Line.mdv201_hn_2_795_abc788" bus1=791 bus2=788 length=0.0667512 geometry=3PH_HORIZ_LG_1C-AL_556_19STRAL_556_19STRAL_556_19STRACSR_1/0_6/1 Seasons=1 Ratings=[0,] normamps=619 emergamps=743 units=km enabled=true phases=3
New "Line.mdv201_hn_2_796_abc782" bus1=788 bus2=782 length=0.0679704 geometry=3PH_VERT_1C-AL_556_19STRAL_556_19STRAL_556_19STRACSR_1/0_6/1 Seasons=1 Ratings=[0,] normamps=619 emergamps=743 units=km enabled=true phases=3
New "Line.mdv201_hn_2_808_abc783" bus1=782 bus2=783 length=0.0573024 geometry=3PH_VERT_1C-AL_556_19STRAL_556_19STRAL_556_19STRACSR_1/0_6/1 Seasons=1 Ratings=[0,] normamps=619 emergamps=743 units=km enabled=true phases=3
New "Line.mdv201_hn_2_809_abc861" bus1=783 bus2=861 length=0.0585216 geometry=3PH_VERT_1C-AL_556_19STRAL_556_19STRAL_556_19STRACSR_1/0_6/1 Seasons=1 Ratings=[0,] normamps=619 emergamps=743 units=km enabled=true phases=3
New "Line.mdv201_hn_2_810_abc63685" bus1=861 bus2=63685 length=0.0734568 geometry=3PH_VERT_1C-AL_556_19STRAL_556_19STRAL_556_19STRACSR_1/0_6/1 Seasons=1 Ratings=[0,] normamps=619 emergamps=743 units=km enabled=true phases=3
New "Line.mdv201_hn_2_811_abc63638" bus1=63685 bus2=63638 length=0.0938784 geometry=3PH_HORIZ_LG_1C-AL_556_19STRAL_556_19STRAL_556_19STRACSR_1/0_6/1 Seasons=1 Ratings=[0,] normamps=619 emergamps=743 units=km enabled=true phases=3
New "Line.mdv201_1010727fuse" bus1=63638.1 bus2=1010727.1 length=0.001524 geometry=1PH-BUSBARNONENONEBUSBAR Seasons=1 Ratings=[0,] normamps=2000 emergamps=2400 units=km enabled=true phases=1
New "Line.mdv201_hn_2_424_a784" bus1=1010727.1 bus2=784.1 length=0.0932688 geometry=1PH-AL_1/0_7STRNONENONEACSR_1/0_6/1 Seasons=1 Ratings=[0,] normamps=218 emergamps=262 units=km enabled=true phases=1
New "Line.s_mdv201_hn_2_424_a784-1a0" bus1=x_784.1 bus2=x_784_1.1 linecode=defaultSecondary Seasons=1 Ratings=[400,] normamps=400 emergamps=600 phases=1 length=100 units=ft
New "Line.s_mdv201_hn_2_424_a784-1a1" bus1=x_784.1 bus2=x_784_2.1 linecode=defaultSecondary Seasons=1 Ratings=[400,] normamps=400 emergamps=600 phases=1 length=100 units=ft
New "Line.mdv201_hn_2_423_a785" bus1=784.1 bus2=785.1 length=0.0469392 geometry=1PH-AL_#2_7STRNONENONEACSR_1/0_6/1 Seasons=1 Ratings=[0,] normamps=163 emergamps=196 units=km enabled=true phases=1
New "Line.s_mdv201_hn_2_423_a785-1a0" bus1=x_785.1 bus2=x_785_1.1 linecode=defaultSecondary Seasons=1 Ratings=[400,] normamps=400 emergamps=600 phases=1 length=100 units=ft
New "Line.mdv201_hn_2_422_a790" bus1=785.1 bus2=790.1 length=0.0469392 geometry=1PH-AL_#2_7STRNONENONEACSR_1/0_6/1 Seasons=1 Ratings=[0,] normamps=163 emergamps=196 units=km enabled=true phases=1
New "Line.s_mdv201_hn_2_422_a790-1a0" bus1=x_790.1 bus2=x_790_1.1 linecode=defaultSecondary Seasons=1 Ratings=[400,] normamps=400 emergamps=600 phases=1 length=100 units=ft
New "Line.s_mdv201_hn_2_422_a790-1a1" bus1=x_790.1 bus2=x_790_2.1 linecode=defaultSecondary Seasons=1 Ratings=[400,] normamps=400 emergamps=600 phases=1 length=100 units=ft
New "Line.mdv201_hn_2_991_a798" bus1=790.1 bus2=798.1 length=0.0420624 geometry=1PH-AL_#2_7STRNONENONEACSR_1/0_6/1 Seasons=1 Ratings=[0,] normamps=163 emergamps=196 units=km enabled=true phases=1
New "Line.mdv201_hn_2_421_a808" bus1=798.1 bus2=808.1 length=0.0405384 geometry=1PH-AL_#2_7STRNONENONEACSR_1/0_6/1 Seasons=1 Ratings=[0,] normamps=163 emergamps=196 units=km enabled=true phases=1
New "Line.s_mdv201_hn_2_421_a808-1a0" bus1=x_808.1 bus2=x_808_1.1 linecode=defaultSecondary Seasons=1 Ratings=[400,] normamps=400 emergamps=600 phases=1 length=100 units=ft
New "Line.mdv201_hn_2_420_a814" bus1=808.1 bus2=814.1 length=0.028956 geometry=1PH-AL_#2_7STRNONENONEACSR_1/0_6/1 Seasons=1 Ratings=[0,] normamps=163 emergamps=196 units=km enabled=true phases=1
New "Line.s_mdv201_hn_2_420_a814-1a0" bus1=x_814.1 bus2=x_814_1.1 linecode=defaultSecondary Seasons=1 Ratings=[400,] normamps=400 emergamps=600 phases=1 length=100 units=ft
New "Line.s_mdv201_hn_2_420_a814-1a1" bus1=x_814.1 bus2=x_814_2.1 linecode=defaultSecondary Seasons=1 Ratings=[400,] normamps=400 emergamps=600 phases=1 length=100 units=ft
New "Line.s_mdv201_hn_2_420_a814-1a2" bus1=x_814.1 bus2=x_814_3.1 linecode=defaultSecondary Seasons=1 Ratings=[400,] normamps=400 emergamps=600 phases=1 length=100 units=ft
New "Line.mdv201_hn_2_419_a827" bus1=814.1 bus2=827.1 length=0.0536448 geometry=1PH-AL_#2_7STRNONENONEACSR_1/0_6/1 Seasons=1 Ratings=[0,] normamps=163 emergamps=196 units=km enabled=true phases=1
New "Line.s_mdv201_hn_2_419_a827-1a0" bus1=x_827.1 bus2=x_827_1.1 linecode=defaultSecondary Seasons=1 Ratings=[400,] normamps=400 emergamps=600 phases=1 length=100 units=ft
New "Line.mdv201_hn_2_418_a835" bus1=827.1 bus2=835.1 length=0.0527304 geometry=1PH-AL_#2_7STRNONENONEACSR_1/0_6/1 Seasons=1 Ratings=[0,] normamps=163 emergamps=196 units=km enabled=true phases=1
New "Line.s_mdv201_hn_2_418_a835-1a0" bus1=x_835.1 bus2=x_835_1.1 linecode=defaultSecondary Seasons=1 Ratings=[400,] normamps=400 emergamps=600 phases=1 length=100 units=ft
New "Line.s_mdv201_hn_2_418_a835-1a1" bus1=x_835.1 bus2=x_835_2.1 linecode=defaultSecondary Seasons=1 Ratings=[400,] normamps=400 emergamps=600 phases=1 length=100 units=ft
New "Line.mdv201_hn_2_417_a842" bus1=835.1 bus2=842.1 length=0.048768 geometry=1PH-AL_#2_7STRNONENONEACSR_1/0_6/1 Seasons=1 Ratings=[0,] normamps=163 emergamps=196 units=km enabled=true phases=1
New "Line.s_mdv201_hn_2_417_a842-1a0" bus1=x_842.1 bus2=x_842_1.1 linecode=defaultSecondary Seasons=1 Ratings=[400,] normamps=400 emergamps=600 phases=1 length=100 units=ft
New "Line.mdv201_hn_2_416_a844" bus1=842.1 bus2=844.1 length=0.04572 geometry=1PH-AL_#2_7STRNONENONEACSR_1/0_6/1 Seasons=1 Ratings=[0,] normamps=163 emergamps=196 units=km enabled=true phases=1
New "Line.s_mdv201_hn_2_416_a844-1a0" bus1=x_844.1 bus2=x_844_1.1 linecode=defaultSecondary Seasons=1 Ratings=[400,] normamps=400 emergamps=600 phases=1 length=100 units=ft
New "Line.s_mdv201_hn_2_416_a844-1a1" bus1=x_844.1 bus2=x_844_2.1 linecode=defaultSecondary Seasons=1 Ratings=[400,] normamps=400 emergamps=600 phases=1 length=100 units=ft
New "Line.mdv201_hn_2_415_a845" bus1=844.1 bus2=845.1 length=0.04572 geometry=1PH-AL_#2_7STRNONENONEACSR_1/0_6/1 Seasons=1 Ratings=[0,] normamps=163 emergamps=196 units=km enabled=true phases=1
New "Line.mdv201_hn_2_414_a843" bus1=844.1 bus2=843.1 length=0.057912 geometry=1PH-AL_#2_7STRNONENONEACSR_1/0_6/1 Seasons=1 Ratings=[0,] normamps=163 emergamps=196 units=km enabled=true phases=1
New "Line.s_mdv201_hn_2_414_a843-1a0" bus1=x_843.1 bus2=x_843_1.1 linecode=defaultSecondary Seasons=1 Ratings=[400,] normamps=400 emergamps=600 phases=1 length=100 units=ft
New "Line.mdv201_hn_2_413_a838" bus1=843.1 bus2=838.1 length=0.042672 geometry=1PH-AL_#2_7STRNONENONEACSR_1/0_6/1 Seasons=1 Ratings=[0,] normamps=163 emergamps=196 units=km enabled=true phases=1
New "Line.s_mdv201_hn_2_413_a838-1a0" bus1=x_838.1 bus2=x_838_1.1 linecode=defaultSecondary Seasons=1 Ratings=[400,] normamps=400 emergamps=600 phases=1 length=100 units=ft
New "Line.s_mdv201_hn_2_413_a838-1a1" bus1=x_838.1 bus2=x_838_2.1 linecode=defaultSecondary Seasons=1 Ratings=[400,] normamps=400 emergamps=600 phases=1 length=100 units=ft
New "Line.s_mdv201_hn_2_413_a838-1a2" bus1=x_838.1 bus2=x_838_3.1 linecode=defaultSecondary Seasons=1 Ratings=[400,] normamps=400 emergamps=600 phases=1 length=100 units=ft
New "Line.mdv201_hn_2_412_a832" bus1=838.1 bus2=832.1 length=0.0524256 geometry=1PH-AL_#2_7STRNONENONEACSR_1/0_6/1 Seasons=1 Ratings=[0,] normamps=163 emergamps=196 units=km enabled=true phases=1
New "Line.s_mdv201_hn_2_412_a832-1a0" bus1=x_832.1 bus2=x_832_1.1 linecode=defaultSecondary Seasons=1 Ratings=[400,] normamps=400 emergamps=600 phases=1 length=100 units=ft
New "Line.s_mdv201_hn_2_412_a832-1a1" bus1=x_832.1 bus2=x_832_2.1 linecode=defaultSecondary Seasons=1 Ratings=[400,] normamps=400 emergamps=600 phases=1 length=100 units=ft
New "Line.s_mdv201_hn_2_412_a832-1a2" bus1=x_832.1 bus2=x_832_3.1 linecode=defaultSecondary Seasons=1 Ratings=[400,] normamps=400 emergamps=600 phases=1 length=100 units=ft
New "Line.mdv201_hn_2_411_a828" bus1=832.1 bus2=828.1 length=0.044196 geometry=1PH-AL_#2_7STRNONENONEACSR_1/0_6/1 Seasons=1 Ratings=[0,] normamps=163 emergamps=196 units=km enabled=true phases=1
New "Line.s_mdv201_hn_2_411_a828-1a0" bus1=x_828.1 bus2=x_828_1.1 linecode=defaultSecondary Seasons=1 Ratings=[400,] normamps=400 emergamps=600 phases=1 length=100 units=ft
New "Line.s_mdv201_hn_2_411_a828-1a1" bus1=x_828.1 bus2=x_828_2.1 linecode=defaultSecondary Seasons=1 Ratings=[400,] normamps=400 emergamps=600 phases=1 length=100 units=ft
New "Line.s_mdv201_hn_2_411_a828-1a2" bus1=x_828.1 bus2=x_828_3.1 linecode=defaultSecondary Seasons=1 Ratings=[400,] normamps=400 emergamps=600 phases=1 length=100 units=ft
New "Line.mdv201_hn_2_410_a819" bus1=828.1 bus2=819.1 length=0.047244 geometry=1PH-AL_#2_7STRNONENONEACSR_1/0_6/1 Seasons=1 Ratings=[0,] normamps=163 emergamps=196 units=km enabled=true phases=1
New "Line.s_mdv201_hn_2_410_a819-1a0" bus1=x_819.1 bus2=x_819_1.1 linecode=defaultSecondary Seasons=1 Ratings=[400,] normamps=400 emergamps=600 phases=1 length=100 units=ft
New "Line.s_mdv201_hn_2_410_a819-1a1" bus1=x_819.1 bus2=x_819_2.1 linecode=defaultSecondary Seasons=1 Ratings=[400,] normamps=400 emergamps=600 phases=1 length=100 units=ft
New "Line.s_mdv201_hn_2_410_a819-1a2" bus1=x_819.1 bus2=x_819_3.1 linecode=defaultSecondary Seasons=1 Ratings=[400,] normamps=400 emergamps=600 phases=1 length=100 units=ft
New "Line.mdv201_hn_2_409_a820" bus1=819.1 bus2=820.1 length=0.0545592 geometry=1PH-AL_#2_7STRNONENONEACSR_1/0_6/1 Seasons=1 Ratings=[0,] normamps=163 emergamps=196 units=km enabled=true phases=1
New "Line.s_mdv201_hn_2_409_a820-1a0" bus1=x_820.1 bus2=x_820_1.1 linecode=defaultSecondary Seasons=1 Ratings=[400,] normamps=400 emergamps=600 phases=1 length=100 units=ft
New "Line.s_mdv201_hn_2_409_a820-1a1" bus1=x_820.1 bus2=x_820_2.1 linecode=defaultSecondary Seasons=1 Ratings=[400,] normamps=400 emergamps=600 phases=1 length=100 units=ft
New "Line.mdv201_1010729fuse" bus1=798.1 bus2=1010729.1 length=0.001524 geometry=1PH-BUSBARNONENONEBUSBAR Seasons=1 Ratings=[0,] normamps=2000 emergamps=2400 units=km enabled=true phases=1
New "Line.mdv201_hn_2p026_a1010728" bus1=1010729.1 bus2=1010728.1 length=0.042672 linecode=UG_1/0AL Seasons=1 Ratings=[400,] normamps=150 emergamps=150 units=km enabled=true phases=1
New "Line.mdv201_hn_2p028_a1160489" bus1=1010728.1 bus2=1160489.1 length=0.1197864 linecode=UG_1/0AL Seasons=1 Ratings=[400,] normamps=150 emergamps=150 units=km enabled=true phases=1
New "Line.hn_2p028_sw" bus1=1160489.1 bus2=mdv201_795elb_int.1 length=0.001 Switch=True units=km enabled=true phases=1
New "Line.mdv201_795elb" bus1=mdv201_795elb_int.1 bus2=795.1 length=0.001524 linecode=BUSBAR Seasons=1 Ratings=[400,] normamps=2000 emergamps=2000 units=km enabled=true phases=1
New "Line.s_mdv201_795elb-1a0" bus1=x_795.1 bus2=x_795_1.1 linecode=defaultSecondary Seasons=1 Ratings=[400,] normamps=400 emergamps=600 phases=1 length=100 units=ft
New "Line.s_mdv201_795elb-1a1" bus1=x_795.1 bus2=x_795_2.1 linecode=defaultSecondary Seasons=1 Ratings=[400,] normamps=400 emergamps=600 phases=1 length=100 units=ft
New "Line.mdv201_hn_2_436_abc63639" bus1=63638 bus2=63639 length=0.0423672 geometry=3PH_HORIZ_LG_1C-AL_556_19STRAL_556_19STRAL_556_19STRACSR_1/0_6/1 Seasons=1 Ratings=[0,] normamps=619 emergamps=743 units=km enabled=true phases=3
New "Line.s_mdv201_hn_2_436_abc63639-1b0" bus1=x_63639.2 bus2=x_63639_1.2 linecode=defaultSecondary Seasons=1 Ratings=[400,] normamps=400 emergamps=600 phases=1 length=100 units=ft
New "Line.mdv201_hn_2_435_abc63643" bus1=63639 bus2=63643 length=0.0606552 geometry=3PH_HORIZ_LG_1C-AL_556_19STRAL_556_19STRAL_556_19STRACSR_1/0_6/1 Seasons=1 Ratings=[0,] normamps=619 emergamps=743 units=km enabled=true phases=3
New "Line.s_mdv201_hn_2_435_abc63643-1b0" bus1=x_63643.2 bus2=x_63643_1.2 linecode=defaultSecondary Seasons=1 Ratings=[400,] normamps=400 emergamps=600 phases=1 length=100 units=ft
New "Line.s_mdv201_hn_2_435_abc63643-1b1" bus1=x_63643.2 bus2=x_63643_2.2 linecode=defaultSecondary Seasons=1 Ratings=[400,] normamps=400 emergamps=600 phases=1 length=100 units=ft
New "Line.mdv201_hn_2_434_abc63645" bus1=63643 bus2=63645 length=0.0612648 geometry=3PH_HORIZ_LG_1C-AL_556_19STRAL_556_19STRAL_556_19STRACSR_1/0_6/1 Seasons=1 Ratings=[0,] normamps=619 emergamps=743 units=km enabled=true phases=3
New "Line.s_mdv201_hn_2_434_abc63645-1b0" bus1=x_63645.2 bus2=x_63645_1.2 linecode=defaultSecondary Seasons=1 Ratings=[400,] normamps=400 emergamps=600 phases=1 length=100 units=ft
New "Line.s_mdv201_hn_2_434_abc63645-1b1" bus1=x_63645.2 bus2=x_63645_2.2 linecode=defaultSecondary Seasons=1 Ratings=[400,] normamps=400 emergamps=600 phases=1 length=100 units=ft
New "Line.mdv201_hn_2_408_abc63655" bus1=63645 bus2=63655 length=0.06096 geometry=3PH_HORIZ_LG_1C-AL_556_19STRAL_556_19STRAL_556_19STRACSR_1/0_6/1 Seasons=1 Ratings=[0,] normamps=619 emergamps=743 units=km enabled=true phases=3
New "Line.s_mdv201_hn_2_408_abc63655-1b0" bus1=x_63655.2 bus2=x_63655_1.2 linecode=defaultSecondary Seasons=1 Ratings=[400,] normamps=400 emergamps=600 phases=1 length=100 units=ft
New "Line.s_mdv201_hn_2_408_abc63655-1b1" bus1=x_63655.2 bus2=x_63655_2.2 linecode=defaultSecondary Seasons=1 Ratings=[400,] normamps=400 emergamps=600 phases=1 length=100 units=ft
New "Line.mdv201_hn_2_395_abc63657" bus1=63655 bus2=63657 length=0.0691896 geometry=3PH_VERT_1C-AL_556_19STRAL_556_19STRAL_556_19STRACSR_1/0_6/1 Seasons=1 Ratings=[0,] normamps=619 emergamps=743 units=km enabled=true phases=3
New "Line.s_mdv201_hn_2_395_abc63657-1b0" bus1=x_63657.2 bus2=x_63657_1.2 linecode=defaultSecondary Seasons=1 Ratings=[400,] normamps=400 emergamps=600 phases=1 length=100 units=ft
New "Line.mdv201_hn_2_812_abc63656" bus1=63657 bus2=63656 length=0.047244 geometry=3PH_VERT_1C-AL_4/0_7STRAL_4/0_7STRAL_4/0_7STRACSR_1/0_6/1 Seasons=1 Ratings=[0,] normamps=338 emergamps=406 units=km enabled=true phases=3
New "Line.sw-hn_2_812_sw" bus1=63656 bus2=mdv201_107107usd_int length=0.001 Switch=True units=km enabled=true phases=3
New "Line.mdv201_107107usd" bus1=mdv201_107107usd_int bus2=107107 length=0.001524 geometry=3PH_HORIZ_LG_1C-BUSBARBUSBARBUSBARBUSBAR Seasons=1 Ratings=[0,] normamps=2000 emergamps=2400 units=km enabled=true phases=3
New "Line.mdv201_hn_2_813_abc63654" bus1=107107 bus2=63654 length=0.100584 geometry=3PH_HORIZ_LG_1C-AL_4/0_7STRAL_4/0_7STRAL_4/0_7STRACSR_1/0_6/1 Seasons=1 Ratings=[0,] normamps=338 emergamps=406 units=km enabled=true phases=3
New "Line.mdv201_hn_2_814_abc14891" bus1=63654 bus2=14891 length=0.10668 geometry=3PH_HORIZ_LG_1C-AL_4/0_7STRAL_4/0_7STRAL_4/0_7STRACSR_1/0_6/1 Seasons=1 Ratings=[0,] normamps=338 emergamps=406 units=km enabled=true phases=3
New "Line.mdv201_hn_2_815_abc14892" bus1=14891 bus2=14892 length=0.0917448 geometry=3PH_HORIZ_LG_1C-AL_4/0_7STRAL_4/0_7STRAL_4/0_7STRACSR_1/0_6/1 Seasons=1 Ratings=[0,] normamps=338 emergamps=406 units=km enabled=true phases=3
New "Line.mdv201_hn_2_828_abc28247" bus1=14892 bus2=28247 length=0.0908304 geometry=3PH_HORIZ_LG_1C-AL_4/0_7STRAL_4/0_7STRAL_4/0_7STRACSR_1/0_6/1 Seasons=1 Ratings=[0,] normamps=338 emergamps=406 units=km enabled=true phases=3
New "Line.mdv201_hn_2_823_abc28244" bus1=28247 bus2=28244 length=0.0478536 geometry=3PH_VERT_1C-AL_4/0_7STRAL_4/0_7STRAL_4/0_7STRACSR_1/0_6/1 Seasons=1 Ratings=[0,] normamps=338 emergamps=406 units=km enabled=true phases=3
New "Line.mdv201_1144254fuse" bus1=28244.2 bus2=1144254.2 length=0.001524 geometry=1PH-NONEBUSBARNONEBUSBAR Seasons=1 Ratings=[0,] normamps=2000 emergamps=2400 units=km enabled=true phases=1
New "Line.mdv201_hn_2_729_b28246" bus1=1144254.2 bus2=28246.2 length=0.0262128 geometry=1PH-NONEAL_#2_7STRNONEACSR_1/0_6/1 Seasons=1 Ratings=[0,] normamps=163 emergamps=196 units=km enabled=true phases=1
New "Line.s_mdv201_hn_2_729_b28246-1b0" bus1=x_28246.2 bus2=x_28246_1.2 linecode=defaultSecondary Seasons=1 Ratings=[400,] normamps=400 emergamps=600 phases=1 length=100 units=ft
New "Line.mdv201_hn_2_730_b14851" bus1=28246.2 bus2=14851.2 length=0.0966216 geometry=1PH-NONEAL_#2_7STRNONEACSR_1/0_6/1 Seasons=1 Ratings=[0,] normamps=163 emergamps=196 units=km enabled=true phases=1
New "Line.mdv201_hn_2_731_b14852" bus1=14851.2 bus2=14852.2 length=0.09144 geometry=1PH-NONEAL_#2_7STRNONEACSR_1/0_6/1 Seasons=1 Ratings=[0,] normamps=163 emergamps=196 units=km enabled=true phases=1
New "Line.s_mdv201_hn_2_731_b14852-1b0" bus1=x_14852.2 bus2=x_14852_1.2 linecode=defaultSecondary Seasons=1 Ratings=[400,] normamps=400 emergamps=600 phases=1 length=100 units=ft
New "Line.mdv201_hn_2_283_abc14857" bus1=28244 bus2=14857 length=0.0307848 geometry=3PH_VERT_1C-AL_4/0_7STRAL_4/0_7STRAL_4/0_7STRACSR_1/0_6/1 Seasons=1 Ratings=[0,] normamps=338 emergamps=406 units=km enabled=true phases=3
New "Line.s_mdv201_hn_2_283_abc14857-1b0" bus1=x_14857.2 bus2=x_14857_1.2 linecode=defaultSecondary Seasons=1 Ratings=[400,] normamps=400 emergamps=600 phases=1 length=100 units=ft
New "Line.s_mdv201_hn_2_283_abc14857-1b1" bus1=x_14857.2 bus2=x_14857_2.2 linecode=defaultSecondary Seasons=1 Ratings=[400,] normamps=400 emergamps=600 phases=1 length=100 units=ft
New "Line.mdv201_hn_2_094_abc51012" bus1=14857 bus2=51012 length=0.0515112 geometry=3PH_HORIZ_LG_1C-AL_4/0_7STRAL_4/0_7STRAL_4/0_7STRACSR_1/0_6/1 Seasons=1 Ratings=[0,] normamps=338 emergamps=406 units=km enabled=true phases=3
New "Line.s_mdv201_hn_2_094_abc51012-1b0" bus1=x_51012.2 bus2=x_51012_1.2 linecode=defaultSecondary Seasons=1 Ratings=[400,] normamps=400 emergamps=600 phases=1 length=100 units=ft
New "Line.mdv201_hn_2_093_abc63714" bus1=51012 bus2=63714 length=0.079248 geometry=3PH_HORIZ_LG_1C-AL_4/0_7STRAL_4/0_7STRAL_4/0_7STRACSR_1/0_6/1 Seasons=1 Ratings=[0,] normamps=338 emergamps=406 units=km enabled=true phases=3
New "Line.s_mdv201_hn_2_093_abc63714-1b0" bus1=x_63714.2 bus2=x_63714_1.2 linecode=defaultSecondary Seasons=1 Ratings=[400,] normamps=400 emergamps=600 phases=1 length=100 units=ft
New "Line.s_mdv201_hn_2_093_abc63714-1b1" bus1=x_63714.2 bus2=x_63714_2.2 linecode=defaultSecondary Seasons=1 Ratings=[400,] normamps=400 emergamps=600 phases=1 length=100 units=ft
New "Line.mdv201_hn_2_092_abc63711" bus1=63714 bus2=63711 length=0.105156 geometry=3PH_HORIZ_LG_1C-AL_4/0_7STRAL_4/0_7STRAL_4/0_7STRACSR_1/0_6/1 Seasons=1 Ratings=[0,] normamps=338 emergamps=406 units=km enabled=true phases=3
New "Line.s_mdv201_hn_2_092_abc63711-1b0" bus1=x_63711.2 bus2=x_63711_1.2 linecode=defaultSecondary Seasons=1 Ratings=[400,] normamps=400 emergamps=600 phases=1 length=100 units=ft
New "Line.s_mdv201_hn_2_092_abc63711-1b1" bus1=x_63711.2 bus2=x_63711_2.2 linecode=defaultSecondary Seasons=1 Ratings=[400,] normamps=400 emergamps=600 phases=1 length=100 units=ft
New "Line.mdv201_hn_2_247_abc44582" bus1=63711 bus2=44582 length=0.0432816 geometry=3PH_HORIZ_LG_1C-AL_4/0_7STRAL_4/0_7STRAL_4/0_7STRACSR_1/0_6/1 Seasons=1 Ratings=[0,] normamps=338 emergamps=406 units=km enabled=true phases=3
New "Line.s_mdv201_hn_2_247_abc44582-1b0" bus1=x_44582.2 bus2=x_44582_1.2 linecode=defaultSecondary Seasons=1 Ratings=[400,] normamps=400 emergamps=600 phases=1 length=100 units=ft
New "Line.s_mdv201_hn_2_247_abc44582-1b1" bus1=x_44582.2 bus2=x_44582_2.2 linecode=defaultSecondary Seasons=1 Ratings=[400,] normamps=400 emergamps=600 phases=1 length=100 units=ft
New "Line.mdv201_hn_2_217_abc8160" bus1=44582 bus2=8160 length=0.025908 geometry=3PH_HORIZ_LG_1C-AL_4/0_7STRAL_4/0_7STRAL_4/0_7STRACSR_1/0_6/1 Seasons=1 Ratings=[0,] normamps=338 emergamps=406 units=km enabled=true phases=3
New "Line.mdv201_104355fuse" bus1=8160.2 bus2=104355.2 length=0.001524 geometry=1PH-NONEBUSBARNONEBUSBAR Seasons=1 Ratings=[0,] normamps=2000 emergamps=2400 units=km enabled=true phases=1
New "Line.mdv201_hn_2_218_b8161" bus1=104355.2 bus2=8161.2 length=0.09144 geometry=1PH-NONECU_#6_1STRNONEACSR_1/0_6/1 Seasons=1 Ratings=[0,] normamps=125 emergamps=150 units=km enabled=true phases=1
New "Line.s_mdv201_hn_2_218_b8161-1b0" bus1=x_8161.2 bus2=x_8161_1.2 linecode=defaultSecondary Seasons=1 Ratings=[400,] normamps=400 emergamps=600 phases=1 length=100 units=ft
New "Line.s_mdv201_hn_2_218_b8161-1b1" bus1=x_8161.2 bus2=x_8161_2.2 linecode=defaultSecondary Seasons=1 Ratings=[400,] normamps=400 emergamps=600 phases=1 length=100 units=ft
New "Line.mdv201_hn_2_219_b8162" bus1=8161.2 bus2=8162.2 length=0.0920496 geometry=1PH-NONECU_#6_1STRNONEACSR_1/0_6/1 Seasons=1 Ratings=[0,] normamps=125 emergamps=150 units=km enabled=true phases=1
New "Line.mdv201_hn_2_220_b44580" bus1=8162.2 bus2=44580.2 length=0.0844296 geometry=1PH-NONECU_#6_1STRNONEACSR_1/0_6/1 Seasons=1 Ratings=[0,] normamps=125 emergamps=150 units=km enabled=true phases=1
New "Line.s_mdv201_hn_2_220_b44580-1b0" bus1=x_44580.2 bus2=x_44580_1.2 linecode=defaultSecondary Seasons=1 Ratings=[400,] normamps=400 emergamps=600 phases=1 length=100 units=ft
New "Line.mdv201_hn_2_221_b8169" bus1=44580.2 bus2=8169.2 length=0.1109472 geometry=1PH-NONECU_#6_1STRNONEACSR_1/0_6/1 Seasons=1 Ratings=[0,] normamps=125 emergamps=150 units=km enabled=true phases=1
New "Line.mdv201_hn_2_223_b8168" bus1=8169.2 bus2=8168.2 length=0.0920496 geometry=1PH-NONECU_#6_1STRNONEACSR_1/0_6/1 Seasons=1 Ratings=[0,] normamps=125 emergamps=150 units=km enabled=true phases=1
New "Line.s_mdv201_hn_2_223_b8168-1b0" bus1=x_8168.2 bus2=x_8168_1.2 linecode=defaultSecondary Seasons=1 Ratings=[400,] normamps=400 emergamps=600 phases=1 length=100 units=ft
New "Line.s_mdv201_hn_2_223_b8168-1b1" bus1=x_8168.2 bus2=x_8168_2.2 linecode=defaultSecondary Seasons=1 Ratings=[400,] normamps=400 emergamps=600 phases=1 length=100 units=ft
New "Line.mdv201_hn_21011_b1144229" bus1=8169.2 bus2=1144229.2 length=0.085344 geometry=1PH-NONEAL_1/0_7STRNONEACSR_1/0_6/1 Seasons=1 Ratings=[0,] normamps=218 emergamps=262 units=km enabled=true phases=1
New "Line.s_mdv201_hn_21011_b1144229-1b0" bus1=x_1144229.2 bus2=x_1144229_1.2 linecode=defaultSecondary Seasons=1 Ratings=[400,] normamps=400 emergamps=600 phases=1 length=100 units=ft
New "Line.mdv201_hn_2_091_abc44583" bus1=8160 bus2=44583 length=0.0332232 geometry=3PH_HORIZ_LG_1C-AL_4/0_7STRAL_4/0_7STRAL_4/0_7STRACSR_1/0_6/1 Seasons=1 Ratings=[0,] normamps=338 emergamps=406 units=km enabled=true phases=3
New "Line.s_mdv201_hn_2_091_abc44583-1c0" bus1=x_44583.3 bus2=x_44583_1.3 linecode=defaultSecondary Seasons=1 Ratings=[400,] normamps=400 emergamps=600 phases=1 length=100 units=ft
New "Line.s_mdv201_hn_2_091_abc44583-1c1" bus1=x_44583.3 bus2=x_44583_2.3 linecode=defaultSecondary Seasons=1 Ratings=[400,] normamps=400 emergamps=600 phases=1 length=100 units=ft
New "Line.mdv201_hn_2_248_abc44584" bus1=44583 bus2=44584 length=0.0301752 geometry=3PH_HORIZ_LG_1C-AL_4/0_7STRAL_4/0_7STRAL_4/0_7STRACSR_1/0_6/1 Seasons=1 Ratings=[0,] normamps=338 emergamps=406 units=km enabled=true phases=3
New "Line.s_mdv201_hn_2_248_abc44584-1c0" bus1=x_44584.3 bus2=x_44584_1.3 linecode=defaultSecondary Seasons=1 Ratings=[400,] normamps=400 emergamps=600 phases=1 length=100 units=ft
New "Line.s_mdv201_hn_2_248_abc44584-1c1" bus1=x_44584.3 bus2=x_44584_2.3 linecode=defaultSecondary Seasons=1 Ratings=[400,] normamps=400 emergamps=600 phases=1 length=100 units=ft
New "Line.s_mdv201_hn_2_248_abc44584-1c2" bus1=x_44584.3 bus2=x_44584_3.3 linecode=defaultSecondary Seasons=1 Ratings=[400,] normamps=400 emergamps=600 phases=1 length=100 units=ft
New "Line.mdv201_hn_2_089_abc8163" bus1=44584 bus2=8163 length=0.0600456 geometry=3PH_VERT_1C-AL_4/0_7STRAL_4/0_7STRAL_4/0_7STRACSR_1/0_6/1 Seasons=1 Ratings=[0,] normamps=338 emergamps=406 units=km enabled=true phases=3
New "Line.s_mdv201_hn_2_089_abc8163-1c0" bus1=x_8163.3 bus2=x_8163_1.3 linecode=defaultSecondary Seasons=1 Ratings=[400,] normamps=400 emergamps=600 phases=1 length=100 units=ft
New "Line.s_mdv201_hn_2_089_abc8163-1c1" bus1=x_8163.3 bus2=x_8163_2.3 linecode=defaultSecondary Seasons=1 Ratings=[400,] normamps=400 emergamps=600 phases=1 length=100 units=ft
New "Line.s_mdv201_hn_2_089_abc8163-1c2" bus1=x_8163.3 bus2=x_8163_3.3 linecode=defaultSecondary Seasons=1 Ratings=[400,] normamps=400 emergamps=600 phases=1 length=100 units=ft
New "Line.mdv201_hn_2_088_abc8164" bus1=8163 bus2=8164 length=0.0841248 geometry=3PH_HORIZ_LG_1C-AL_4/0_7STRAL_4/0_7STRAL_4/0_7STRACSR_1/0_6/1 Seasons=1 Ratings=[0,] normamps=338 emergamps=406 units=km enabled=true phases=3
New "Line.s_mdv201_hn_2_088_abc8164-1c0" bus1=x_8164.3 bus2=x_8164_1.3 linecode=defaultSecondary Seasons=1 Ratings=[400,] normamps=400 emergamps=600 phases=1 length=100 units=ft
New "Line.s_mdv201_hn_2_088_abc8164-1c1" bus1=x_8164.3 bus2=x_8164_2.3 linecode=defaultSecondary Seasons=1 Ratings=[400,] normamps=400 emergamps=600 phases=1 length=100 units=ft
New "Line.s_mdv201_hn_2_088_abc8164-1c2" bus1=x_8164.3 bus2=x_8164_3.3 linecode=defaultSecondary Seasons=1 Ratings=[400,] normamps=400 emergamps=600 phases=1 length=100 units=ft
New "Line.s_mdv201_hn_2_088_abc8164-1c3" bus1=x_8164.3 bus2=x_8164_4.3 linecode=defaultSecondary Seasons=1 Ratings=[400,] normamps=400 emergamps=600 phases=1 length=100 units=ft
New "Line.mdv201_hn_2_360_abc8165" bus1=8164 bus2=8165 length=0.0249936 geometry=3PH_HORIZ_LG_1C-AL_4/0_7STRAL_4/0_7STRAL_4/0_7STRACSR_1/0_6/1 Seasons=1 Ratings=[0,] normamps=338 emergamps=406 units=km enabled=true phases=3
New "Line.s_mdv201_hn_2_360_abc8165-1c0" bus1=x_8165.3 bus2=x_8165_1.3 linecode=defaultSecondary Seasons=1 Ratings=[400,] normamps=400 emergamps=600 phases=1 length=100 units=ft
New "Line.s_mdv201_hn_2_360_abc8165-1c1" bus1=x_8165.3 bus2=x_8165_2.3 linecode=defaultSecondary Seasons=1 Ratings=[400,] normamps=400 emergamps=600 phases=1 length=100 units=ft
New "Line.mdv201_hn_2_086_abc8167" bus1=8165 bus2=8167 length=0.0630936 geometry=3PH_HORIZ_LG_1C-AL_4/0_7STRAL_4/0_7STRAL_4/0_7STRACSR_1/0_6/1 Seasons=1 Ratings=[0,] normamps=338 emergamps=406 units=km enabled=true phases=3
New "Line.s_mdv201_hn_2_086_abc8167-1b0" bus1=x_8167.2 bus2=x_8167_1.2 linecode=defaultSecondary Seasons=1 Ratings=[400,] normamps=400 emergamps=600 phases=1 length=100 units=ft
New "Line.s_mdv201_hn_2_086_abc8167-1b1" bus1=x_8167.2 bus2=x_8167_2.2 linecode=defaultSecondary Seasons=1 Ratings=[400,] normamps=400 emergamps=600 phases=1 length=100 units=ft
New "Line.s_mdv201_hn_2_086_abc8167-1b2" bus1=x_8167.2 bus2=x_8167_3.2 linecode=defaultSecondary Seasons=1 Ratings=[400,] normamps=400 emergamps=600 phases=1 length=100 units=ft
New "Line.s_mdv201_hn_2_086_abc8167-1b3" bus1=x_8167.2 bus2=x_8167_4.2 linecode=defaultSecondary Seasons=1 Ratings=[400,] normamps=400 emergamps=600 phases=1 length=100 units=ft
New "Line.s_mdv201_hn_2_086_abc8167-1b4" bus1=x_8167.2 bus2=x_8167_5.2 linecode=defaultSecondary Seasons=1 Ratings=[400,] normamps=400 emergamps=600 phases=1 length=100 units=ft
New "Line.mdv201_hn_2_578_abc44585" bus1=8167 bus2=44585 length=0.0332232 geometry=3PH_HORIZ_LG_1C-AL_4/0_7STRAL_4/0_7STRAL_4/0_7STRACSR_1/0_6/1 Seasons=1 Ratings=[0,] normamps=338 emergamps=406 units=km enabled=true phases=3
New "Line.mdv201_hn_2_085_abc38388" bus1=44585 bus2=38388 length=0.0341376 geometry=3PH_HORIZ_LG_1C-AL_4/0_7STRAL_4/0_7STRAL_4/0_7STRACSR_1/0_6/1 Seasons=1 Ratings=[0,] normamps=338 emergamps=406 units=km enabled=true phases=3
New "Line.s_mdv201_hn_2_085_abc38388-1b0" bus1=x_38388.2 bus2=x_38388_1.2 linecode=defaultSecondary Seasons=1 Ratings=[400,] normamps=400 emergamps=600 phases=1 length=100 units=ft
New "Line.s_mdv201_hn_2_085_abc38388-1b1" bus1=x_38388.2 bus2=x_38388_2.2 linecode=defaultSecondary Seasons=1 Ratings=[400,] normamps=400 emergamps=600 phases=1 length=100 units=ft
New "Line.s_mdv201_hn_2_085_abc38388-1b2" bus1=x_38388.2 bus2=x_38388_3.2 linecode=defaultSecondary Seasons=1 Ratings=[400,] normamps=400 emergamps=600 phases=1 length=100 units=ft
New "Line.mdv201_106882fuse" bus1=38388.2 bus2=106882.2 length=0.001524 geometry=1PH-NONEBUSBARNONEBUSBAR Seasons=1 Ratings=[0,] normamps=2000 emergamps=2400 units=km enabled=true phases=1
New "Line.mdv201_hn_2_084_b38389" bus1=106882.2 bus2=38389.2 length=0.0926592 geometry=1PH-NONECU_#6_1STRNONEACSR_1/0_6/1 Seasons=1 Ratings=[0,] normamps=125 emergamps=150 units=km enabled=true phases=1
New "Line.s_mdv201_hn_2_084_b38389-1b0" bus1=x_38389.2 bus2=x_38389_1.2 linecode=defaultSecondary Seasons=1 Ratings=[400,] normamps=400 emergamps=600 phases=1 length=100 units=ft
New "Line.s_mdv201_hn_2_084_b38389-1b1" bus1=x_38389.2 bus2=x_38389_2.2 linecode=defaultSecondary Seasons=1 Ratings=[400,] normamps=400 emergamps=600 phases=1 length=100 units=ft
New "Line.mdv201_hn_2_312_abc44586" bus1=38388 bus2=44586 length=0.0603504 geometry=3PH_HORIZ_LG_1C-AL_4/0_7STRAL_4/0_7STRAL_4/0_7STRACSR_1/0_6/1 Seasons=1 Ratings=[0,] normamps=338 emergamps=406 units=km enabled=true phases=3
New "Line.s_mdv201_hn_2_312_abc44586-1b0" bus1=x_44586.2 bus2=x_44586_1.2 linecode=defaultSecondary Seasons=1 Ratings=[400,] normamps=400 emergamps=600 phases=1 length=100 units=ft
New "Line.mdv201_hn_2_083_abc62239" bus1=44586 bus2=62239 length=0.0313944 geometry=3PH_HORIZ_LG_1C-AL_4/0_7STRAL_4/0_7STRAL_4/0_7STRACSR_1/0_6/1 Seasons=1 Ratings=[0,] normamps=338 emergamps=406 units=km enabled=true phases=3
New "Line.mdv201_hn_2_456_abc62242" bus1=62239 bus2=62242 length=0.06096 geometry=3PH_HORIZ_LG_1C-AL_4/0_7STRAL_4/0_7STRAL_4/0_7STRACSR_1/0_6/1 Seasons=1 Ratings=[0,] normamps=338 emergamps=406 units=km enabled=true phases=3
New "Line.mdv201_106884fuse" bus1=62242.3 bus2=106884.3 length=0.001524 geometry=1PH-NONENONEBUSBARBUSBAR Seasons=1 Ratings=[0,] normamps=2000 emergamps=2400 units=km enabled=true phases=1
New "Line.mdv201_hn_2_457_c62244" bus1=106884.3 bus2=62244.3 length=0.0307848 geometry=1PH-NONENONEAL_1/0_7STRACSR_1/0_6/1 Seasons=1 Ratings=[0,] normamps=218 emergamps=262 units=km enabled=true phases=1
New "Line.s_mdv201_hn_2_457_c62244-1c0" bus1=x_62244.3 bus2=x_62244_1.3 linecode=defaultSecondary Seasons=1 Ratings=[400,] normamps=400 emergamps=600 phases=1 length=100 units=ft
New "Line.s_mdv201_hn_2_457_c62244-1c1" bus1=x_62244.3 bus2=x_62244_2.3 linecode=defaultSecondary Seasons=1 Ratings=[400,] normamps=400 emergamps=600 phases=1 length=100 units=ft
New "Line.mdv201_hn_2_466_c62235" bus1=62244.3 bus2=62235.3 length=0.042672 geometry=1PH-NONENONEAL_1/0_7STRACSR_1/0_6/1 Seasons=1 Ratings=[0,] normamps=218 emergamps=262 units=km enabled=true phases=1
New "Line.s_mdv201_hn_2_466_c62235-1c0" bus1=x_62235.3 bus2=x_62235_1.3 linecode=defaultSecondary Seasons=1 Ratings=[400,] normamps=400 emergamps=600 phases=1 length=100 units=ft
New "Line.s_mdv201_hn_2_466_c62235-1c1" bus1=x_62235.3 bus2=x_62235_2.3 linecode=defaultSecondary Seasons=1 Ratings=[400,] normamps=400 emergamps=600 phases=1 length=100 units=ft
New "Line.s_mdv201_hn_2_466_c62235-1c2" bus1=x_62235.3 bus2=x_62235_3.3 linecode=defaultSecondary Seasons=1 Ratings=[400,] normamps=400 emergamps=600 phases=1 length=100 units=ft
New "Line.mdv201_hn_2_465_c62233" bus1=62235.3 bus2=62233.3 length=0.0524256 geometry=1PH-NONENONEAL_1/0_7STRACSR_1/0_6/1 Seasons=1 Ratings=[0,] normamps=218 emergamps=262 units=km enabled=true phases=1
New "Line.s_mdv201_hn_2_465_c62233-1c0" bus1=x_62233.3 bus2=x_62233_1.3 linecode=defaultSecondary Seasons=1 Ratings=[400,] normamps=400 emergamps=600 phases=1 length=100 units=ft
New "Line.s_mdv201_hn_2_465_c62233-1c1" bus1=x_62233.3 bus2=x_62233_2.3 linecode=defaultSecondary Seasons=1 Ratings=[400,] normamps=400 emergamps=600 phases=1 length=100 units=ft
New "Line.s_mdv201_hn_2_465_c62233-1c2" bus1=x_62233.3 bus2=x_62233_3.3 linecode=defaultSecondary Seasons=1 Ratings=[400,] normamps=400 emergamps=600 phases=1 length=100 units=ft
New "Line.mdv201_hn_2_464_c62232" bus1=62233.3 bus2=62232.3 length=0.0402336 geometry=1PH-NONENONEAL_1/0_7STRACSR_1/0_6/1 Seasons=1 Ratings=[0,] normamps=218 emergamps=262 units=km enabled=true phases=1
New "Line.s_mdv201_hn_2_464_c62232-1c0" bus1=x_62232.3 bus2=x_62232_1.3 linecode=defaultSecondary Seasons=1 Ratings=[400,] normamps=400 emergamps=600 phases=1 length=100 units=ft
New "Line.s_mdv201_hn_2_464_c62232-1c1" bus1=x_62232.3 bus2=x_62232_2.3 linecode=defaultSecondary Seasons=1 Ratings=[400,] normamps=400 emergamps=600 phases=1 length=100 units=ft
New "Line.mdv201_hn_2_463_c62234" bus1=62232.3 bus2=62234.3 length=0.0493776 geometry=1PH-NONENONEAL_1/0_7STRACSR_1/0_6/1 Seasons=1 Ratings=[0,] normamps=218 emergamps=262 units=km enabled=true phases=1
New "Line.s_mdv201_hn_2_463_c62234-1c0" bus1=x_62234.3 bus2=x_62234_1.3 linecode=defaultSecondary Seasons=1 Ratings=[400,] normamps=400 emergamps=600 phases=1 length=100 units=ft
New "Line.s_mdv201_hn_2_463_c62234-1c1" bus1=x_62234.3 bus2=x_62234_2.3 linecode=defaultSecondary Seasons=1 Ratings=[400,] normamps=400 emergamps=600 phases=1 length=100 units=ft
New "Line.s_mdv201_hn_2_463_c62234-1c2" bus1=x_62234.3 bus2=x_62234_3.3 linecode=defaultSecondary Seasons=1 Ratings=[400,] normamps=400 emergamps=600 phases=1 length=100 units=ft
New "Line.mdv201_hn_2_462_c62243" bus1=62234.3 bus2=62243.3 length=0.0509016 geometry=1PH-NONENONEAL_1/0_7STRACSR_1/0_6/1 Seasons=1 Ratings=[0,] normamps=218 emergamps=262 units=km enabled=true phases=1
New "Line.s_mdv201_hn_2_462_c62243-1c0" bus1=x_62243.3 bus2=x_62243_1.3 linecode=defaultSecondary Seasons=1 Ratings=[400,] normamps=400 emergamps=600 phases=1 length=100 units=ft
New "Line.s_mdv201_hn_2_462_c62243-1c1" bus1=x_62243.3 bus2=x_62243_2.3 linecode=defaultSecondary Seasons=1 Ratings=[400,] normamps=400 emergamps=600 phases=1 length=100 units=ft
New "Line.s_mdv201_hn_2_462_c62243-1c2" bus1=x_62243.3 bus2=x_62243_3.3 linecode=defaultSecondary Seasons=1 Ratings=[400,] normamps=400 emergamps=600 phases=1 length=100 units=ft
New "Line.s_mdv201_hn_2_462_c62243-1c3" bus1=x_62243.3 bus2=x_62243_4.3 linecode=defaultSecondary Seasons=1 Ratings=[400,] normamps=400 emergamps=600 phases=1 length=100 units=ft
New "Line.mdv201_hn_2_461_c62251" bus1=62243.3 bus2=62251.3 length=0.0469392 geometry=1PH-NONENONEAL_1/0_7STRACSR_1/0_6/1 Seasons=1 Ratings=[0,] normamps=218 emergamps=262 units=km enabled=true phases=1
New "Line.s_mdv201_hn_2_461_c62251-1c0" bus1=x_62251.3 bus2=x_62251_1.3 linecode=defaultSecondary Seasons=1 Ratings=[400,] normamps=400 emergamps=600 phases=1 length=100 units=ft
New "Line.s_mdv201_hn_2_461_c62251-1c1" bus1=x_62251.3 bus2=x_62251_2.3 linecode=defaultSecondary Seasons=1 Ratings=[400,] normamps=400 emergamps=600 phases=1 length=100 units=ft
New "Line.s_mdv201_hn_2_461_c62251-1c2" bus1=x_62251.3 bus2=x_62251_3.3 linecode=defaultSecondary Seasons=1 Ratings=[400,] normamps=400 emergamps=600 phases=1 length=100 units=ft
New "Line.mdv201_hn_2_460_c62258" bus1=62251.3 bus2=62258.3 length=0.0530352 geometry=1PH-NONENONEAL_1/0_7STRACSR_1/0_6/1 Seasons=1 Ratings=[0,] normamps=218 emergamps=262 units=km enabled=true phases=1
New "Line.s_mdv201_hn_2_460_c62258-1c0" bus1=x_62258.3 bus2=x_62258_1.3 linecode=defaultSecondary Seasons=1 Ratings=[400,] normamps=400 emergamps=600 phases=1 length=100 units=ft
New "Line.s_mdv201_hn_2_460_c62258-1c1" bus1=x_62258.3 bus2=x_62258_2.3 linecode=defaultSecondary Seasons=1 Ratings=[400,] normamps=400 emergamps=600 phases=1 length=100 units=ft
New "Line.s_mdv201_hn_2_460_c62258-1c2" bus1=x_62258.3 bus2=x_62258_3.3 linecode=defaultSecondary Seasons=1 Ratings=[400,] normamps=400 emergamps=600 phases=1 length=100 units=ft
New "Line.mdv201_hn_2_459_c62259" bus1=62258.3 bus2=62259.3 length=0.0560832 geometry=1PH-NONENONEAL_1/0_7STRACSR_1/0_6/1 Seasons=1 Ratings=[0,] normamps=218 emergamps=262 units=km enabled=true phases=1
New "Line.s_mdv201_hn_2_459_c62259-1c0" bus1=x_62259.3 bus2=x_62259_1.3 linecode=defaultSecondary Seasons=1 Ratings=[400,] normamps=400 emergamps=600 phases=1 length=100 units=ft
New "Line.s_mdv201_hn_2_459_c62259-1c1" bus1=x_62259.3 bus2=x_62259_2.3 linecode=defaultSecondary Seasons=1 Ratings=[400,] normamps=400 emergamps=600 phases=1 length=100 units=ft
New "Line.mdv201_hn_2_082_abc62250" bus1=62242 bus2=62250 length=0.0734568 geometry=3PH_HORIZ_LG_1C-AL_4/0_7STRAL_4/0_7STRAL_4/0_7STRACSR_1/0_6/1 Seasons=1 Ratings=[0,] normamps=338 emergamps=406 units=km enabled=true phases=3
New "Line.s_mdv201_hn_2_082_abc62250-1b0" bus1=x_62250.2 bus2=x_62250_1.2 linecode=defaultSecondary Seasons=1 Ratings=[400,] normamps=400 emergamps=600 phases=1 length=100 units=ft
New "Line.s_mdv201_hn_2_082_abc62250-1b1" bus1=x_62250.2 bus2=x_62250_2.2 linecode=defaultSecondary Seasons=1 Ratings=[400,] normamps=400 emergamps=600 phases=1 length=100 units=ft
New "Line.s_mdv201_hn_2_082_abc62250-1b2" bus1=x_62250.2 bus2=x_62250_3.2 linecode=defaultSecondary Seasons=1 Ratings=[400,] normamps=400 emergamps=600 phases=1 length=100 units=ft
New "Line.s_mdv201_hn_2_082_abc62250-1b3" bus1=x_62250.2 bus2=x_62250_4.2 linecode=defaultSecondary Seasons=1 Ratings=[400,] normamps=400 emergamps=600 phases=1 length=100 units=ft
...
