Version8/Distrib/Examples/ADiakoptics/EPRI_Ckt5-G/Torn_Circuit/Load.DSS
New "Load.mdv201_hn_2_424_a784-1a0" phases=1 bus1=x_784_1.1 kV=0.24 kW=4.4555065 pf=0.9234 status=variable model=4 CVRwatts=0.8 CVRvars=3 class=1 yearly=Residential conn=wye
New "Load.mdv201_hn_2_424_a784-1a1" phases=1 bus1=x_784_2.1 kV=0.24 kW=4.4555065 pf=0.9234 status=variable model=4 CVRwatts=0.8 CVRvars=3 class=1 yearly=Residential conn=wye
New "Load.mdv201_hn_2_423_a785-1a0" phases=1 bus1=x_785_1.1 kV=0.24 kW=4.187027 pf=0.9234 status=variable model=4 CVRwatts=0.8 CVRvars=3 class=1 yearly=Residential conn=wye
New "Load.mdv201_hn_2_422_a790-1a0" phases=1 bus1=x_790_1.1 kV=0.24 kW=5.593149 pf=0.9234 status=variable model=4 CVRwatts=0.8 CVRvars=3 class=1 yearly=Residential conn=wye
New "Load.mdv201_hn_2_422_a790-1a1" phases=1 bus1=x_790_2.1 kV=0.24 kW=5.593149 pf=0.9234 status=variable model=4 CVRwatts=0.8 CVRvars=3 class=1 yearly=Residential conn=wye
New "Load.mdv201_hn_2_421_a808-1a0" phases=1 bus1=x_808_1.1 kV=0.24 kW=6.303523 pf=0.9234 status=variable model=4 CVRwatts=0.8 CVRvars=3 class=1 yearly=Residential conn=wye
New "Load.mdv201_hn_2_420_a814-1a0" phases=1 bus1=x_814_1.1 kV=0.24 kW=6.23736066666667 pf=0.9234 status=variable model=4 CVRwatts=0.8 CVRvars=3 class=1 yearly=Residential conn=wye
New "Load.mdv201_hn_2_420_a814-1a1" phases=1 bus1=x_814_2.1 kV=0.24 kW=6.23736066666667 pf=0.9234 status=variable model=4 CVRwatts=0.8 CVRvars=3 class=1 yearly=Residential conn=wye
New "Load.mdv201_hn_2_420_a814-1a2" phases=1 bus1=x_814_3.1 kV=0.24 kW=6.23736066666667 pf=0.9234 status=variable model=4 CVRwatts=0.8 CVRvars=3 class=1 yearly=Residential conn=wye
New "Load.mdv201_hn_2_419_a827-1a0" phases=1 bus1=x_827_1.1 kV=0.24 kW=3.948843 pf=0.9234 status=variable model=4 CVRwatts=0.8 CVRvars=3 class=1 yearly=Residential conn=wye
New "Load.mdv201_hn_2_418_a835-1a0" phases=1 bus1=x_835_1.1 kV=0.24 kW=4.2225455 pf=0.9234 status=variable model=4 CVRwatts=0.8 CVRvars=3 class=1 yearly=Residential conn=wye
New "Load.mdv201_hn_2_418_a835-1a1" phases=1 bus1=x_835_2.1 kV=0.24 kW=4.2225455 pf=0.9234 status=variable model=4 CVRwatts=0.8 CVRvars=3 class=1 yearly=Residential conn=wye
New "Load.mdv201_hn_2_417_a842-1a0" phases=1 bus1=x_842_1.1 kV=0.24 kW=3.173699 pf=0.9234 status=variable model=4 CVRwatts=0.8 CVRvars=3 class=1 yearly=Residential conn=wye
New "Load.mdv201_hn_2_416_a844-1a0" phases=1 bus1=x_844_1.1 kV=0.24 kW=4.6717525 pf=0.9234 status=variable model=4 CVRwatts=0.8 CVRvars=3 class=1 yearly=Residential conn=wye
New "Load.mdv201_hn_2_416_a844-1a1" phases=1 bus1=x_844_2.1 kV=0.24 kW=4.6717525 pf=0.9234 status=variable model=4 CVRwatts=0.8 CVRvars=3 class=1 yearly=Residential conn=wye
New "Load.mdv201_hn_2_414_a843-1a0" phases=1 bus1=x_843_1.1 kV=0.24 kW=8.29048 pf=0.9234 status=variable model=4 CVRwatts=0.8 CVRvars=3 class=1 yearly=Residential conn=wye
New "Load.mdv201_hn_2_413_a838-1a0" phases=1 bus1=x_838_1.1 kV=0.24 kW=4.891829 pf=0.9234 status=variable model=4 CVRwatts=0.8 CVRvars=3 class=1 yearly=Residential conn=wye
New "Load.mdv201_hn_2_413_a838-1a1" phases=1 bus1=x_838_2.1 kV=0.24 kW=4.891829 pf=0.9234 status=variable model=4 CVRwatts=0.8 CVRvars=3 class=1 yearly=Residential conn=wye
New "Load.mdv201_hn_2_413_a838-1a2" phases=1 bus1=x_838_3.1 kV=0.24 kW=4.891829 pf=0.9234 status=variable model=4 CVRwatts=0.8 CVRvars=3 class=1 yearly=Residential conn=wye
New "Load.mdv201_hn_2_412_a832-1a0" phases=1 bus1=x_832_1.1 kV=0.24 kW=3.32900666666667 pf=0.9234 status=variable model=4 CVRwatts=0.8 CVRvars=3 class=1 yearly=Residential conn=wye
New "Load.mdv201_hn_2_412_a832-1a1" phases=1 bus1=x_832_2.1 kV=0.24 kW=3.32900666666667 pf=0.9234 status=variable model=4 CVRwatts=0.8 CVRvars=3 class=1 yearly=Residential conn=wye
New "Load.mdv201_hn_2_412_a832-1a2" phases=1 bus1=x_832_3.1 kV=0.24 kW=3.32900666666667 pf=0.9234 status=variable model=4 CVRwatts=0.8 CVRvars=3 class=1 yearly=Residential conn=wye
New "Load.mdv201_hn_2_411_a828-1a0" phases=1 bus1=x_828_1.1 kV=0.24 kW=4.348602 pf=0.9234 status=variable model=4 CVRwatts=0.8 CVRvars=3 class=1 yearly=Residential conn=wye
New "Load.mdv201_hn_2_411_a828-1a1" phases=1 bus1=x_828_2.1 kV=0.24 kW=4.348602 pf=0.9234 status=variable model=4 CVRwatts=0.8 CVRvars=3 class=1 yearly=Residential conn=wye
New "Load.mdv201_hn_2_411_a828-1a2" phases=1 bus1=x_828_3.1 kV=0.24 kW=4.348602 pf=0.9234 status=variable model=4 CVRwatts=0.8 CVRvars=3 class=1 yearly=Residential conn=wye
New "Load.mdv201_hn_2_410_a819-1a0" phases=1 bus1=x_819_1.1 kV=0.24 kW=4.802684 pf=0.9234 status=variable model=4 CVRwatts=0.8 CVRvars=3 class=1 yearly=Residential conn=wye
New "Load.mdv201_hn_2_410_a819-1a1" phases=1 bus1=x_819_2.1 kV=0.24 kW=4.802684 pf=0.9234 status=variable model=4 CVRwatts=0.8 CVRvars=3 class=1 yearly=Residential conn=wye
New "Load.mdv201_hn_2_410_a819-1a2" phases=1 bus1=x_819_3.1 kV=0.24 kW=4.802684 pf=0.9234 status=variable model=4 CVRwatts=0.8 CVRvars=3 class=1 yearly=Residential conn=wye
New "Load.mdv201_hn_2_409_a820-1a0" phases=1 bus1=x_820_1.1 kV=0.24 kW=3.963468 pf=0.9234 status=variable model=4 CVRwatts=0.8 CVRvars=3 class=1 yearly=Residential conn=wye
New "Load.mdv201_hn_2_409_a820-1a1" phases=1 bus1=x_820_2.1 kV=0.24 kW=3.963468 pf=0.9234 status=variable model=4 CVRwatts=0.8 CVRvars=3 class=1 yearly=Residential conn=wye
New "Load.mdv201_795elb-1a0" phases=1 bus1=x_795_1.1 kV=0.24 kW=5.3413845 pf=0.9234 status=variable model=4 CVRwatts=0.8 CVRvars=3 class=2 yearly=Commercial_SM conn=wye
New "Load.mdv201_795elb-1a1" phases=1 bus1=x_795_2.1 kV=0.24 kW=5.3413845 pf=0.9234 status=variable model=4 CVRwatts=0.8 CVRvars=3 class=2 yearly=Commercial_SM conn=wye
New "Load.mdv201_hn_2_436_abc63639-1b0" phases=1 bus1=x_63639_1.2 kV=0.24 kW=7.101012 pf=0.9342 status=variable model=4 CVRwatts=0.8 CVRvars=3 class=1 yearly=Residential conn=wye
New "Load.mdv201_hn_2_435_abc63643-1b0" phases=1 bus1=x_63643_1.2 kV=0.24 kW=3.3171635 pf=0.9342 status=variable model=4 CVRwatts=0.8 CVRvars=3 class=1 yearly=Residential conn=wye
New "Load.mdv201_hn_2_435_abc63643-1b1" phases=1 bus1=x_63643_2.2 kV=0.24 kW=3.3171635 pf=0.9342 status=variable model=4 CVRwatts=0.8 CVRvars=3 class=1 yearly=Residential conn=wye
New "Load.mdv201_hn_2_434_abc63645-1b0" phases=1 bus1=x_63645_1.2 kV=0.24 kW=4.8220685 pf=0.9342 status=variable model=4 CVRwatts=0.8 CVRvars=3 class=1 yearly=Residential conn=wye
New "Load.mdv201_hn_2_434_abc63645-1b1" phases=1 bus1=x_63645_2.2 kV=0.24 kW=4.8220685 pf=0.9342 status=variable model=4 CVRwatts=0.8 CVRvars=3 class=1 yearly=Residential conn=wye
New "Load.mdv201_hn_2_408_abc63655-1b0" phases=1 bus1=x_63655_1.2 kV=0.24 kW=4.883745 pf=0.9342 status=variable model=4 CVRwatts=0.8 CVRvars=3 class=1 yearly=Residential conn=wye
New "Load.mdv201_hn_2_408_abc63655-1b1" phases=1 bus1=x_63655_2.2 kV=0.24 kW=4.883745 pf=0.9342 status=variable model=4 CVRwatts=0.8 CVRvars=3 class=1 yearly=Residential conn=wye
New "Load.mdv201_hn_2_395_abc63657-1b0" phases=1 bus1=x_63657_1.2 kV=0.24 kW=2.808333 pf=0.9342 status=variable model=4 CVRwatts=0.8 CVRvars=3 class=1 yearly=Residential conn=wye
New "Load.mdv201_hn_2_729_b28246-1b0" phases=1 bus1=x_28246_1.2 kV=0.24 kW=4.853935 pf=0.9342 status=variable model=4 CVRwatts=0.8 CVRvars=3 class=1 yearly=Residential conn=wye
New "Load.mdv201_hn_2_731_b14852-1b0" phases=1 bus1=x_14852_1.2 kV=0.24 kW=4.263897 pf=0.9342 status=variable model=4 CVRwatts=0.8 CVRvars=3 class=1 yearly=Residential conn=wye
New "Load.mdv201_hn_2_283_abc14857-1b0" phases=1 bus1=x_14857_1.2 kV=0.24 kW=1.813287 pf=0.9342 status=variable model=4 CVRwatts=0.8 CVRvars=3 class=2 yearly=Commercial_SM conn=wye
New "Load.mdv201_hn_2_283_abc14857-1b1" phases=1 bus1=x_14857_2.2 kV=0.24 kW=1.813287 pf=0.9342 status=variable model=4 CVRwatts=0.8 CVRvars=3 class=2 yearly=Commercial_SM conn=wye
New "Load.mdv201_hn_2_094_abc51012-1b0" phases=1 bus1=x_51012_1.2 kV=0.24 kW=10.398645 pf=0.9342 status=variable model=4 CVRwatts=0.8 CVRvars=3 class=1 yearly=Residential conn=wye
New "Load.mdv201_hn_2_093_abc63714-1b0" phases=1 bus1=x_63714_1.2 kV=0.24 kW=2.1843735 pf=0.9342 status=variable model=4 CVRwatts=0.8 CVRvars=3 class=1 yearly=Residential conn=wye
New "Load.mdv201_hn_2_093_abc63714-1b1" phases=1 bus1=x_63714_2.2 kV=0.24 kW=2.1843735 pf=0.9342 status=variable model=4 CVRwatts=0.8 CVRvars=3 class=1 yearly=Residential conn=wye
New "Load.mdv201_hn_2_092_abc63711-1b0" phases=1 bus1=x_63711_1.2 kV=0.24 kW=3.843469 pf=0.9342 status=variable model=4 CVRwatts=0.8 CVRvars=3 class=1 yearly=Residential conn=wye
New "Load.mdv201_hn_2_092_abc63711-1b1" phases=1 bus1=x_63711_2.2 kV=0.24 kW=3.843469 pf=0.9342 status=variable model=4 CVRwatts=0.8 CVRvars=3 class=1 yearly=Residential conn=wye
New "Load.mdv201_hn_2_247_abc44582-1b0" phases=1 bus1=x_44582_1.2 kV=0.24 kW=4.6000335 pf=0.9342 status=variable model=4 CVRwatts=0.8 CVRvars=3 class=1 yearly=Residential conn=wye
New "Load.mdv201_hn_2_247_abc44582-1b1" phases=1 bus1=x_44582_2.2 kV=0.24 kW=4.6000335 pf=0.9342 status=variable model=4 CVRwatts=0.8 CVRvars=3 class=1 yearly=Residential conn=wye
New "Load.mdv201_hn_2_218_b8161-1b0" phases=1 bus1=x_8161_1.2 kV=0.24 kW=5.498453 pf=0.9342 status=variable model=4 CVRwatts=0.8 CVRvars=3 class=1 yearly=Residential conn=wye
New "Load.mdv201_hn_2_218_b8161-1b1" phases=1 bus1=x_8161_2.2 kV=0.24 kW=5.498453 pf=0.9342 status=variable model=4 CVRwatts=0.8 CVRvars=3 class=1 yearly=Residential conn=wye
New "Load.mdv201_hn_2_220_b44580-1b0" phases=1 bus1=x_44580_1.2 kV=0.24 kW=4.461261 pf=0.9342 status=variable model=4 CVRwatts=0.8 CVRvars=3 class=1 yearly=Residential conn=wye
New "Load.mdv201_hn_2_223_b8168-1b0" phases=1 bus1=x_8168_1.2 kV=0.24 kW=3.810575 pf=0.9342 status=variable model=4 CVRwatts=0.8 CVRvars=3 class=1 yearly=Residential conn=wye
New "Load.mdv201_hn_2_223_b8168-1b1" phases=1 bus1=x_8168_2.2 kV=0.24 kW=3.810575 pf=0.9342 status=variable model=4 CVRwatts=0.8 CVRvars=3 class=1 yearly=Residential conn=wye
New "Load.mdv201_hn_21011_b1144229-1b0" phases=1 bus1=x_1144229_1.2 kV=0.24 kW=6.017563 pf=0.9342 status=variable model=4 CVRwatts=0.8 CVRvars=3 class=1 yearly=Residential conn=wye
New "Load.mdv201_hn_2_091_abc44583-1c0" phases=1 bus1=x_44583_1.3 kV=0.24 kW=3.65677 pf=0.93 status=variable model=4 CVRwatts=0.8 CVRvars=3 class=1 yearly=Residential conn=wye
New "Load.mdv201_hn_2_091_abc44583-1c1" phases=1 bus1=x_44583_2.3 kV=0.24 kW=3.65677 pf=0.93 status=variable model=4 CVRwatts=0.8 CVRvars=3 class=1 yearly=Residential conn=wye
New "Load.mdv201_hn_2_248_abc44584-1c0" phases=1 bus1=x_44584_1.3 kV=0.24 kW=7.14337633333333 pf=0.93 status=variable model=4 CVRwatts=0.8 CVRvars=3 class=1 yearly=Residential conn=wye
New "Load.mdv201_hn_2_248_abc44584-1c1" phases=1 bus1=x_44584_2.3 kV=0.24 kW=7.14337633333333 pf=0.93 status=variable model=4 CVRwatts=0.8 CVRvars=3 class=1 yearly=Residential conn=wye
New "Load.mdv201_hn_2_248_abc44584-1c2" phases=1 bus1=x_44584_3.3 kV=0.24 kW=7.14337633333333 pf=0.93 status=variable model=4 CVRwatts=0.8 CVRvars=3 class=1 yearly=Residential conn=wye
New "Load.mdv201_hn_2_089_abc8163-1c0" phases=1 bus1=x_8163_1.3 kV=0.24 kW=4.98398 pf=0.93 status=variable model=4 CVRwatts=0.8 CVRvars=3 class=1 yearly=Residential conn=wye
New "Load.mdv201_hn_2_089_abc8163-1c1" phases=1 bus1=x_8163_2.3 kV=0.24 kW=4.98398 pf=0.93 status=variable model=4 CVRwatts=0.8 CVRvars=3 class=1 yearly=Residential conn=wye
New "Load.mdv201_hn_2_089_abc8163-1c2" phases=1 bus1=x_8163_3.3 kV=0.24 kW=4.98398 pf=0.93 status=variable model=4 CVRwatts=0.8 CVRvars=3 class=1 yearly=Residential conn=wye
New "Load.mdv201_hn_2_088_abc8164-1c0" phases=1 bus1=x_8164_1.3 kV=0.24 kW=6.0942655 pf=0.93 status=variable model=4 CVRwatts=0.8 CVRvars=3 class=1 yearly=Residential conn=wye
New "Load.mdv201_hn_2_088_abc8164-1c1" phases=1 bus1=x_8164_2.3 kV=0.24 kW=6.0942655 pf=0.93 status=variable model=4 CVRwatts=0.8 CVRvars=3 class=1 yearly=Residential conn=wye
New "Load.mdv201_hn_2_088_abc8164-1c2" phases=1 bus1=x_8164_3.3 kV=0.24 kW=6.0942655 pf=0.93 status=variable model=4 CVRwatts=0.8 CVRvars=3 class=1 yearly=Residential conn=wye
New "Load.mdv201_hn_2_088_abc8164-1c3" phases=1 bus1=x_8164_4.3 kV=0.24 kW=6.0942655 pf=0.93 status=variable model=4 CVRwatts=0.8 CVRvars=3 class=1 yearly=Residential conn=wye
New "Load.mdv201_hn_2_360_abc8165-1c0" phases=1 bus1=x_8165_1.3 kV=0.24 kW=4.9952305 pf=0.93 status=variable model=4 CVRwatts=0.8 CVRvars=3 class=1 yearly=Residential conn=wye
New "Load.mdv201_hn_2_360_abc8165-1c1" phases=1 bus1=x_8165_2.3 kV=0.24 kW=4.9952305 pf=0.93 status=variable model=4 CVRwatts=0.8 CVRvars=3 class=1 yearly=Residential conn=wye
New "Load.mdv201_hn_2_086_abc8167-1b0" phases=1 bus1=x_8167_1.2 kV=0.24 kW=5.7984062 pf=0.9342 status=variable model=4 CVRwatts=0.8 CVRvars=3 class=1 yearly=Residential conn=wye
New "Load.mdv201_hn_2_086_abc8167-1b1" phases=1 bus1=x_8167_2.2 kV=0.24 kW=5.7984062 pf=0.9342 status=variable model=4 CVRwatts=0.8 CVRvars=3 class=1 yearly=Residential conn=wye
New "Load.mdv201_hn_2_086_abc8167-1b2" phases=1 bus1=x_8167_3.2 kV=0.24 kW=5.7984062 pf=0.9342 status=variable model=4 CVRwatts=0.8 CVRvars=3 class=1 yearly=Residential conn=wye
New "Load.mdv201_hn_2_086_abc8167-1b3" phases=1 bus1=x_8167_4.2 kV=0.24 kW=5.7984062 pf=0.9342 status=variable model=4 CVRwatts=0.8 CVRvars=3 class=1 yearly=Residential conn=wye
New "Load.mdv201_hn_2_086_abc8167-1b4" phases=1 bus1=x_8167_5.2 kV=0.24 kW=5.7984062 pf=0.9342 status=variable model=4 CVRwatts=0.8 CVRvars=3 class=1 yearly=Residential conn=wye
New "Load.mdv201_hn_2_085_abc38388-1b0" phases=1 bus1=x_38388_1.2 kV=0.24 kW=6.06690433333333 pf=0.9342 status=variable model=4 CVRwatts=0.8 CVRvars=3 class=1 yearly=Residential conn=wye
New "Load.mdv201_hn_2_085_abc38388-1b1" phases=1 bus1=x_38388_2.2 kV=0.24 kW=6.06690433333333 pf=0.9342 status=variable model=4 CVRwatts=0.8 CVRvars=3 class=1 yearly=Residential conn=wye
New "Load.mdv201_hn_2_085_abc38388-1b2" phases=1 bus1=x_38388_3.2 kV=0.24 kW=6.06690433333333 pf=0.9342 status=variable model=4 CVRwatts=0.8 CVRvars=3 class=1 yearly=Residential conn=wye
New "Load.mdv201_hn_2_084_b38389-1b0" phases=1 bus1=x_38389_1.2 kV=0.24 kW=2.9943905 pf=0.9342 status=variable model=4 CVRwatts=0.8 CVRvars=3 class=1 yearly=Residential conn=wye
New "Load.mdv201_hn_2_084_b38389-1b1" phases=1 bus1=x_38389_2.2 kV=0.24 kW=2.9943905 pf=0.9342 status=variable model=4 CVRwatts=0.8 CVRvars=3 class=1 yearly=Residential conn=wye
New "Load.mdv201_hn_2_312_abc44586-1b0" phases=1 bus1=x_44586_1.2 kV=0.24 kW=5.680399 pf=0.9342 status=variable model=4 CVRwatts=0.8 CVRvars=3 class=1 yearly=Residential conn=wye
New "Load.mdv201_hn_2_457_c62244-1c0" phases=1 bus1=x_62244_1.3 kV=0.24 kW=3.8075975 pf=0.93 status=variable model=4 CVRwatts=0.8 CVRvars=3 class=1 yearly=Residential conn=wye
New "Load.mdv201_hn_2_457_c62244-1c1" phases=1 bus1=x_62244_2.3 kV=0.24 kW=3.8075975 pf=0.93 status=variable model=4 CVRwatts=0.8 CVRvars=3 class=1 yearly=Residential conn=wye
New "Load.mdv201_hn_2_466_c62235-1c0" phases=1 bus1=x_62235_1.3 kV=0.24 kW=5.62455633333333 pf=0.93 status=variable model=4 CVRwatts=0.8 CVRvars=3 class=1 yearly=Residential conn=wye
New "Load.mdv201_hn_2_466_c62235-1c1" phases=1 bus1=x_62235_2.3 kV=0.24 kW=5.62455633333333 pf=0.93 status=variable model=4 CVRwatts=0.8 CVRvars=3 class=1 yearly=Residential conn=wye
New "Load.mdv201_hn_2_466_c62235-1c2" phases=1 bus1=x_62235_3.3 kV=0.24 kW=5.62455633333333 pf=0.93 status=variable model=4 CVRwatts=0.8 CVRvars=3 class=1 yearly=Residential conn=wye
New "Load.mdv201_hn_2_465_c62233-1c0" phases=1 bus1=x_62233_1.3 kV=0.24 kW=4.59513366666667 pf=0.93 status=variable model=4 CVRwatts=0.8 CVRvars=3 class=1 yearly=Residential conn=wye
New "Load.mdv201_hn_2_465_c62233-1c1" phases=1 bus1=x_62233_2.3 kV=0.24 kW=4.59513366666667 pf=0.93 status=variable model=4 CVRwatts=0.8 CVRvars=3 class=1 yearly=Residential conn=wye
New "Load.mdv201_hn_2_465_c62233-1c2" phases=1 bus1=x_62233_3.3 kV=0.24 kW=4.59513366666667 pf=0.93 status=variable model=4 CVRwatts=0.8 CVRvars=3 class=1 yearly=Residential conn=wye
New "Load.mdv201_hn_2_464_c62232-1c0" phases=1 bus1=x_62232_1.3 kV=0.24 kW=6.567842 pf=0.93 status=variable model=4 CVRwatts=0.8 CVRvars=3 class=1 yearly=Residential conn=wye
New "Load.mdv201_hn_2_464_c62232-1c1" phases=1 bus1=x_62232_2.3 kV=0.24 kW=6.567842 pf=0.93 status=variable model=4 CVRwatts=0.8 CVRvars=3 class=1 yearly=Residential conn=wye
New "Load.mdv201_hn_2_463_c62234-1c0" phases=1 bus1=x_62234_1.3 kV=0.24 kW=6.27427366666667 pf=0.93 status=variable model=4 CVRwatts=0.8 CVRvars=3 class=1 yearly=Residential conn=wye
New "Load.mdv201_hn_2_463_c62234-1c1" phases=1 bus1=x_62234_2.3 kV=0.24 kW=6.27427366666667 pf=0.93 status=variable model=4 CVRwatts=0.8 CVRvars=3 class=1 yearly=Residential conn=wye
New "Load.mdv201_hn_2_463_c62234-1c2" phases=1 bus1=x_62234_3.3 kV=0.24 kW=6.27427366666667 pf=0.93 status=variable model=4 CVRwatts=0.8 CVRvars=3 class=1 yearly=Residential conn=wye
New "Load.mdv201_hn_2_462_c62243-1c0" phases=1 bus1=x_62243_1.3 kV=0.24 kW=5.84692975 pf=0.93 status=variable model=4 CVRwatts=0.8 CVRvars=3 class=1 yearly=Residential conn=wye
New "Load.mdv201_hn_2_462_c62243-1c1" phases=1 bus1=x_62243_2.3 kV=0.24 kW=5.84692975 pf=0.93 status=variable model=4 CVRwatts=0.8 CVRvars=3 class=1 yearly=Residential conn=wye
New "Load.mdv201_hn_2_462_c62243-1c2" phases=1 bus1=x_62243_3.3 kV=0.24 kW=5.84692975 pf=0.93 status=variable model=4 CVRwatts=0.8 CVRvars=3 class=1 yearly=Residential conn=wye
New "Load.mdv201_hn_2_462_c62243-1c3" phases=1 bus1=x_62243_4.3 kV=0.24 kW=5.84692975 pf=0.93 status=variable model=4 CVRwatts=0.8 CVRvars=3 class=1 yearly=Residential conn=wye
New "Load.mdv201_hn_2_461_c62251-1c0" phases=1 bus1=x_62251_1.3 kV=0.24 kW=3.86385 pf=0.93 status=variable model=4 CVRwatts=0.8 CVRvars=3 class=1 yearly=Residential conn=wye
New "Load.mdv201_hn_2_461_c62251-1c1" phases=1 bus1=x_62251_2.3 kV=0.24 kW=3.86385 pf=0.93 status=variable model=4 CVRwatts=0.8 CVRvars=3 class=1 yearly=Residential conn=wye
New "Load.mdv201_hn_2_461_c62251-1c2" phases=1 bus1=x_62251_3.3 kV=0.24 kW=3.86385 pf=0.93 status=variable model=4 CVRwatts=0.8 CVRvars=3 class=1 yearly=Residential conn=wye
New "Load.mdv201_hn_2_460_c62258-1c0" phases=1 bus1=x_62258_1.3 kV=0.24 kW=5.00015233333333 pf=0.93 status=variable model=4 CVRwatts=0.8 CVRvars=3 class=1 yearly=Residential conn=wye
New "Load.mdv201_hn_2_460_c62258-1c1" phases=1 bus1=x_62258_2.3 kV=0.24 kW=5.00015233333333 pf=0.93 status=variable model=4 CVRwatts=0.8 CVRvars=3 class=1 yearly=Residential conn=wye
New "Load.mdv201_hn_2_460_c62258-1c2" phases=1 bus1=x_62258_3.3 kV=0.24 kW=5.00015233333333 pf=0.93 status=variable model=4 CVRwatts=0.8 CVRvars=3 class=1 yearly=Residential conn=wye
New "Load.mdv201_hn_2_459_c62259-1c0" phases=1 bus1=x_62259_1.3 kV=0.24 kW=7.6943 pf=0.93 status=variable model=4 CVRwatts=0.8 CVRvars=3 class=1 yearly=Residential conn=wye
New "Load.mdv201_hn_2_459_c62259-1c1" phases=1 bus1=x_62259_2.3 kV=0.24 kW=7.6943 pf=0.93 status=variable model=4 CVRwatts=0.8 CVRvars=3 class=1 yearly=Residential conn=wye
New "Load.mdv201_hn_2_082_abc62250-1b0" phases=1 bus1=x_62250_1.2 kV=0.24 kW=7.10152625 pf=0.9342 status=variable model=4 CVRwatts=0.8 CVRvars=3 class=1 yearly=Residential conn=wye
New "Load.mdv201_hn_2_082_abc62250-1b1" phases=1 bus1=x_62250_2.2 kV=0.24 kW=7.10152625 pf=0.9342 status=variable model=4 CVRwatts=0.8 CVRvars=3 class=1 yearly=Residential conn=wye
New "Load.mdv201_hn_2_082_abc62250-1b2" phases=1 bus1=x_62250_3.2 kV=0.24 kW=7.10152625 pf=0.9342 status=variable model=4 CVRwatts=0.8 CVRvars=3 class=1 yearly=Residential conn=wye
New "Load.mdv201_hn_2_082_abc62250-1b3" phases=1 bus1=x_62250_4.2 kV=0.24 kW=7.10152625 pf=0.9342 status=variable model=4 CVRwatts=0.8 CVRvars=3 class=1 yearly=Residential conn=wye
New "Load.mdv201_hn_2_031_abc62264-1b0" phases=1 bus1=x_62264_1.2 kV=0.24 kW=6.7474005 pf=0.9342 status=variable model=4 CVRwatts=0.8 CVRvars=3 class=1 yearly=Residential conn=wye
New "Load.mdv201_hn_2_031_abc62264-1b1" phases=1 bus1=x_62264_2.2 kV=0.24 kW=6.7474005 pf=0.9342 status=variable model=4 CVRwatts=0.8 CVRvars=3 class=1 yearly=Residential conn=wye
New "Load.mdv201_hn_21050_b62307-1b0" phases=1 bus1=x_62307_1.2 kV=0.24 kW=7.331271 pf=0.9342 status=variable model=4 CVRwatts=0.8 CVRvars=3 class=1 yearly=Residential conn=wye
New "Load.mdv201_hn_2_030_abc62265-1b0" phases=1 bus1=x_62265_1.2 kV=0.24 kW=6.605545 pf=0.9342 status=variable model=4 CVRwatts=0.8 CVRvars=3 class=1 yearly=Residential conn=wye
New "Load.mdv201_hn_2_030_abc62265-1b1" phases=1 bus1=x_62265_2.2 kV=0.24 kW=6.605545 pf=0.9342 status=variable model=4 CVRwatts=0.8 CVRvars=3 class=1 yearly=Residential conn=wye
New "Load.mdv201_hn_2_029_abc62262-1b0" phases=1 bus1=x_62262_1.2 kV=0.24 kW=5.022517 pf=0.9342 status=variable model=4 CVRwatts=0.8 CVRvars=3 class=1 yearly=Residential conn=wye
New "Load.mdv201_hn_2_186_abc15011-1a0" phases=1 bus1=x_15011_1.1 kV=0.24 kW=3.190414 pf=0.9234 status=variable model=4 CVRwatts=0.8 CVRvars=3 class=1 yearly=Residential conn=wye
New "Load.mdv201_hn_2_186_abc15011-1a1" phases=1 bus1=x_15011_2.1 kV=0.24 kW=3.190414 pf=0.9234 status=variable model=4 CVRwatts=0.8 CVRvars=3 class=1 yearly=Residential conn=wye
New "Load.mdv201_da_8_146_abc6578-1a0" phases=1 bus1=x_6578_1.1 kV=0.24 kW=4.43844333333333 pf=0.9234 status=variable model=4 CVRwatts=0.8 CVRvars=3 class=1 yearly=Residential conn=wye
New "Load.mdv201_da_8_146_abc6578-1a1" phases=1 bus1=x_6578_2.1 kV=0.24 kW=4.43844333333333 pf=0.9234 status=variable model=4 CVRwatts=0.8 CVRvars=3 class=1 yearly=Residential conn=wye
New "Load.mdv201_da_8_146_abc6578-1a2" phases=1 bus1=x_6578_3.1 kV=0.24 kW=4.43844333333333 pf=0.9234 status=variable model=4 CVRwatts=0.8 CVRvars=3 class=1 yearly=Residential conn=wye
New "Load.mdv201_da_8_507_abc6580-1a0" phases=1 bus1=x_6580_1.1 kV=0.24 kW=4.55475 pf=0.9234 status=variable model=4 CVRwatts=0.8 CVRvars=3 class=1 yearly=Residential conn=wye
New "Load.mdv201_da_8_507_abc6580-1a1" phases=1 bus1=x_6580_2.1 kV=0.24 kW=4.55475 pf=0.9234 status=variable model=4 CVRwatts=0.8 CVRvars=3 class=1 yearly=Residential conn=wye
New "Load.mdv201_da_8_459_a6583-1a0" phases=1 bus1=x_6583_1.1 kV=0.24 kW=6.928234 pf=0.9234 status=variable model=4 CVRwatts=0.8 CVRvars=3 class=1 yearly=Residential conn=wye
New "Load.mdv201_da_8_459_a6583-1a1" phases=1 bus1=x_6583_2.1 kV=0.24 kW=6.928234 pf=0.9234 status=variable model=4 CVRwatts=0.8 CVRvars=3 class=1 yearly=Residential conn=wye
New "Load.mdv201_da_8_673_a6595-1a0" phases=1 bus1=x_6595_1.1 kV=0.24 kW=4.9945545 pf=0.9234 status=variable model=4 CVRwatts=0.8 CVRvars=3 class=1 yearly=Residential conn=wye
New "Load.mdv201_da_8_673_a6595-1a1" phases=1 bus1=x_6595_2.1 kV=0.24 kW=4.9945545 pf=0.9234 status=variable model=4 CVRwatts=0.8 CVRvars=3 class=1 yearly=Residential conn=wye
New "Load.mdv201_da_8_674_a6597-1a0" phases=1 bus1=x_6597_1.1 kV=0.24 kW=5.799297 pf=0.9234 status=variable model=4 CVRwatts=0.8 CVRvars=3 class=1 yearly=Residential conn=wye
New "Load.mdv201_da_8_674_a6597-1a1" phases=1 bus1=x_6597_2.1 kV=0.24 kW=5.799297 pf=0.9234 status=variable model=4 CVRwatts=0.8 CVRvars=3 class=1 yearly=Residential conn=wye
New "Load.mdv201_da_8_674_a6597-1a2" phases=1 bus1=x_6597_3.1 kV=0.24 kW=5.799297 pf=0.9234 status=variable model=4 CVRwatts=0.8 CVRvars=3 class=1 yearly=Residential conn=wye
New "Load.mdv201_da_8_675_a56750-1a0" phases=1 bus1=x_56750_1.1 kV=0.24 kW=5.82245375 pf=0.9234 status=variable model=4 CVRwatts=0.8 CVRvars=3 class=1 yearly=Residential conn=wye
New "Load.mdv201_da_8_675_a56750-1a1" phases=1 bus1=x_56750_2.1 kV=0.24 kW=5.82245375 pf=0.9234 status=variable model=4 CVRwatts=0.8 CVRvars=3 class=1 yearly=Residential conn=wye
New "Load.mdv201_da_8_675_a56750-1a2" phases=1 bus1=x_56750_3.1 kV=0.24 kW=5.82245375 pf=0.9234 status=variable model=4 CVRwatts=0.8 CVRvars=3 class=1 yearly=Residential conn=wye
New "Load.mdv201_da_8_675_a56750-1a3" phases=1 bus1=x_56750_4.1 kV=0.24 kW=5.82245375 pf=0.9234 status=variable model=4 CVRwatts=0.8 CVRvars=3 class=1 yearly=Residential conn=wye
New "Load.mdv201_da_8_676_a56755-1a0" phases=1 bus1=x_56755_1.1 kV=0.24 kW=5.00552375 pf=0.9234 status=variable model=4 CVRwatts=0.8 CVRvars=3 class=1 yearly=Residential conn=wye
New "Load.mdv201_da_8_676_a56755-1a1" phases=1 bus1=x_56755_2.1 kV=0.24 kW=5.00552375 pf=0.9234 status=variable model=4 CVRwatts=0.8 CVRvars=3 class=1 yearly=Residential conn=wye
New "Load.mdv201_da_8_676_a56755-1a2" phases=1 bus1=x_56755_3.1 kV=0.24 kW=5.00552375 pf=0.9234 status=variable model=4 CVRwatts=0.8 CVRvars=3 class=1 yearly=Residential conn=wye
New "Load.mdv201_da_8_676_a56755-1a3" phases=1 bus1=x_56755_4.1 kV=0.24 kW=5.00552375 pf=0.9234 status=variable model=4 CVRwatts=0.8 CVRvars=3 class=1 yearly=Residential conn=wye
New "Load.mdv201_da_8_677_a56760-1a0" phases=1 bus1=x_56760_1.1 kV=0.24 kW=5.18259475 pf=0.9234 status=variable model=4 CVRwatts=0.8 CVRvars=3 class=1 yearly=Residential conn=wye
New "Load.mdv201_da_8_677_a56760-1a1" phases=1 bus1=x_56760_2.1 kV=0.24 kW=5.18259475 pf=0.9234 status=variable model=4 CVRwatts=0.8 CVRvars=3 class=1 yearly=Residential conn=wye
New "Load.mdv201_da_8_677_a56760-1a2" phases=1 bus1=x_56760_3.1 kV=0.24 kW=5.18259475 pf=0.9234 status=variable model=4 CVRwatts=0.8 CVRvars=3 class=1 yearly=Residential conn=wye
New "Load.mdv201_da_8_677_a56760-1a3" phases=1 bus1=x_56760_4.1 kV=0.24 kW=5.18259475 pf=0.9234 status=variable model=4 CVRwatts=0.8 CVRvars=3 class=1 yearly=Residential conn=wye
New "Load.mdv201_da_8_678_a56764-1a0" phases=1 bus1=x_56764_1.1 kV=0.24 kW=5.41816725 pf=0.9234 status=variable model=4 CVRwatts=0.8 CVRvars=3 class=1 yearly=Residential conn=wye
New "Load.mdv201_da_8_678_a56764-1a1" phases=1 bus1=x_56764_2.1 kV=0.24 kW=5.41816725 pf=0.9234 status=variable model=4 CVRwatts=0.8 CVRvars=3 class=1 yearly=Residential conn=wye
New "Load.mdv201_da_8_678_a56764-1a2" phases=1 bus1=x_56764_3.1 kV=0.24 kW=5.41816725 pf=0.9234 status=variable model=4 CVRwatts=0.8 CVRvars=3 class=1 yearly=Residential conn=wye
New "Load.mdv201_da_8_678_a56764-1a3" phases=1 bus1=x_56764_4.1 kV=0.24 kW=5.41816725 pf=0.9234 status=variable model=4 CVRwatts=0.8 CVRvars=3 class=1 yearly=Residential conn=wye
New "Load.mdv201_da_8_679_a56772-1a0" phases=1 bus1=x_56772_1.1 kV=0.24 kW=6.303523 pf=0.9234 status=variable model=4 CVRwatts=0.8 CVRvars=3 class=1 yearly=Residential conn=wye
New "Load.mdv201_da_8_679_a56772-1a1" phases=1 bus1=x_56772_2.1 kV=0.24 kW=6.303523 pf=0.9234 status=variable model=4 CVRwatts=0.8 CVRvars=3 class=1 yearly=Residential conn=wye
New "Load.mdv201_da_8_679_a56772-1a2" phases=1 bus1=x_56772_3.1 kV=0.24 kW=6.303523 pf=0.9234 status=variable model=4 CVRwatts=0.8 CVRvars=3 class=1 yearly=Residential conn=wye
New "Load.mdv201_da_8_740_abc6594-1b0" phases=1 bus1=x_6594_1.2 kV=0.24 kW=5.04992866666667 pf=0.9342 status=variable model=4 CVRwatts=0.8 CVRvars=3 class=1 yearly=Residential conn=wye
New "Load.mdv201_da_8_740_abc6594-1b1" phases=1 bus1=x_6594_2.2 kV=0.24 kW=5.04992866666667 pf=0.9342 status=variable model=4 CVRwatts=0.8 CVRvars=3 class=1 yearly=Residential conn=wye
New "Load.mdv201_da_8_740_abc6594-1b2" phases=1 bus1=x_6594_3.2 kV=0.24 kW=5.04992866666667 pf=0.9342 status=variable model=4 CVRwatts=0.8 CVRvars=3 class=1 yearly=Residential conn=wye
New "Load.mdv201_da_8_140_abc56751-1a0" phases=1 bus1=x_56751_1.1 kV=0.24 kW=4.341638 pf=0.9234 status=variable model=4 CVRwatts=0.8 CVRvars=3 class=1 yearly=Residential conn=wye
New "Load.mdv201_da_8_234_abc56762-1c0" phases=1 bus1=x_56762_1.3 kV=0.24 kW=13.169435 pf=0.93 status=variable model=4 CVRwatts=0.8 CVRvars=3 class=1 yearly=Residential conn=wye
New "Load.mdv201_da_8_917_a56768-1a0" phases=1 bus1=x_56768_1.1 kV=0.24 kW=1.376872 pf=0.9234 status=variable model=4 CVRwatts=0.8 CVRvars=3 class=2 yearly=Commercial_SM conn=wye
New "Load.mdv201_da_8_918_a56770-1a0" phases=1 bus1=x_56770_1.1 kV=0.24 kW=6.683782 pf=0.9234 status=variable model=4 CVRwatts=0.8 CVRvars=3 class=1 yearly=Residential conn=wye
New "Load.mdv201_da_8_918_a56770-1a1" phases=1 bus1=x_56770_2.1 kV=0.24 kW=6.683782 pf=0.9234 status=variable model=4 CVRwatts=0.8 CVRvars=3 class=1 yearly=Residential conn=wye
New "Load.mdv201_da_8_918_a56770-1a2" phases=1 bus1=x_56770_3.1 kV=0.24 kW=6.683782 pf=0.9234 status=variable model=4 CVRwatts=0.8 CVRvars=3 class=1 yearly=Residential conn=wye
New "Load.mdv201_da_8_919_a56782-1a0" phases=1 bus1=x_56782_1.1 kV=0.24 kW=5.6140425 pf=0.9234 status=variable model=4 CVRwatts=0.8 CVRvars=3 class=1 yearly=Residential conn=wye
New "Load.mdv201_da_8_919_a56782-1a1" phases=1 bus1=x_56782_2.1 kV=0.24 kW=5.6140425 pf=0.9234 status=variable model=4 CVRwatts=0.8 CVRvars=3 class=1 yearly=Residential conn=wye
New "Load.mdv201_da_8_920_a56783-1a0" phases=1 bus1=x_56783_1.1 kV=0.24 kW=7.86739 pf=0.9234 status=variable model=4 CVRwatts=0.8 CVRvars=3 class=1 yearly=Residential conn=wye
New "Load.mdv201_da_8_920_a56783-1a1" phases=1 bus1=x_56783_2.1 kV=0.24 kW=7.86739 pf=0.9234 status=variable model=4 CVRwatts=0.8 CVRvars=3 class=1 yearly=Residential conn=wye
New "Load.mdv201_da_8_920_a56783-1a2" phases=1 bus1=x_56783_3.1 kV=0.24 kW=7.86739 pf=0.9234 status=variable model=4 CVRwatts=0.8 CVRvars=3 class=1 yearly=Residential conn=wye
New "Load.mdv201_da_8_920_a56783-1a3" phases=1 bus1=x_56783_4.1 kV=0.24 kW=7.86739 pf=0.9234 status=variable model=4 CVRwatts=0.8 CVRvars=3 class=1 yearly=Residential conn=wye
New "Load.mdv201_da_8_922_a56784-1a0" phases=1 bus1=x_56784_1.1 kV=0.24 kW=10.100889 pf=0.9234 status=variable model=4 CVRwatts=0.8 CVRvars=3 class=1 yearly=Residential conn=wye
New "Load.mdv201_da_8_922_a56784-1a1" phases=1 bus1=x_56784_2.1 kV=0.24 kW=10.100889 pf=0.9234 status=variable model=4 CVRwatts=0.8 CVRvars=3 class=1 yearly=Residential conn=wye
New "Load.mdv201_da_8_923_a56785-1a0" phases=1 bus1=x_56785_1.1 kV=0.24 kW=6.7454175 pf=0.9234 status=variable model=4 CVRwatts=0.8 CVRvars=3 class=1 yearly=Residential conn=wye
New "Load.mdv201_da_8_923_a56785-1a1" phases=1 bus1=x_56785_2.1 kV=0.24 kW=6.7454175 pf=0.9234 status=variable model=4 CVRwatts=0.8 CVRvars=3 class=1 yearly=Residential conn=wye
New "Load.mdv201_da_8_924_a56786-1a0" phases=1 bus1=x_56786_1.1 kV=0.24 kW=7.092247 pf=0.9234 status=variable model=4 CVRwatts=0.8 CVRvars=3 class=1 yearly=Residential conn=wye
New "Load.mdv201_da_8_924_a56786-1a1" phases=1 bus1=x_56786_2.1 kV=0.24 kW=7.092247 pf=0.9234 status=variable model=4 CVRwatts=0.8 CVRvars=3 class=1 yearly=Residential conn=wye
New "Load.mdv201_da_8_925_a56787-1a0" phases=1 bus1=x_56787_1.1 kV=0.24 kW=7.776504 pf=0.9234 status=variable model=4 CVRwatts=0.8 CVRvars=3 class=1 yearly=Residential conn=wye
New "Load.mdv201_da_8_925_a56787-1a1" phases=1 bus1=x_56787_2.1 kV=0.24 kW=7.776504 pf=0.9234 status=variable model=4 CVRwatts=0.8 CVRvars=3 class=1 yearly=Residential conn=wye
New "Load.mdv201_da_8_925_a56787-1a2" phases=1 bus1=x_56787_3.1 kV=0.24 kW=7.776504 pf=0.9234 status=variable model=4 CVRwatts=0.8 CVRvars=3 class=1 yearly=Residential conn=wye
New "Load.mdv201_da_8_925_a56787-1a3" phases=1 bus1=x_56787_4.1 kV=0.24 kW=7.776504 pf=0.9234 status=variable model=4 CVRwatts=0.8 CVRvars=3 class=1 yearly=Residential conn=wye
New "Load.mdv201_da_8_926_a74421-1a0" phases=1 bus1=x_74421_1.1 kV=0.24 kW=8.17608925 pf=0.9234 status=variable model=4 CVRwatts=0.8 CVRvars=3 class=1 yearly=Residential conn=wye
New "Load.mdv201_da_8_926_a74421-1a1" phases=1 bus1=x_74421_2.1 kV=0.24 kW=8.17608925 pf=0.9234 status=variable model=4 CVRwatts=0.8 CVRvars=3 class=1 yearly=Residential conn=wye
New "Load.mdv201_da_8_926_a74421-1a2" phases=1 bus1=x_74421_3.1 kV=0.24 kW=8.17608925 pf=0.9234 status=variable model=4 CVRwatts=0.8 CVRvars=3 class=1 yearly=Residential conn=wye
New "Load.mdv201_da_8_926_a74421-1a3" phases=1 bus1=x_74421_4.1 kV=0.24 kW=8.17608925 pf=0.9234 status=variable model=4 CVRwatts=0.8 CVRvars=3 class=1 yearly=Residential conn=wye
New "Load.mdv201_da_8_927_a74424-1a0" phases=1 bus1=x_74424_1.1 kV=0.24 kW=7.6819615 pf=0.9234 status=variable model=4 CVRwatts=0.8 CVRvars=3 class=1 yearly=Residential conn=wye
New "Load.mdv201_da_8_927_a74424-1a1" phases=1 bus1=x_74424_2.1 kV=0.24 kW=7.6819615 pf=0.9234 status=variable model=4 CVRwatts=0.8 CVRvars=3 class=1 yearly=Residential conn=wye
New "Load.mdv201_da_8_927_a74424-1a2" phases=1 bus1=x_74424_3.1 kV=0.24 kW=7.6819615 pf=0.9234 status=variable model=4 CVRwatts=0.8 CVRvars=3 class=1 yearly=Residential conn=wye
New "Load.mdv201_da_8_927_a74424-1a3" phases=1 bus1=x_74424_4.1 kV=0.24 kW=7.6819615 pf=0.9234 status=variable model=4 CVRwatts=0.8 CVRvars=3 class=1 yearly=Residential conn=wye
New "Load.mdv201_da_8_928_a39733-1a0" phases=1 bus1=x_39733_1.1 kV=0.24 kW=6.6910945 pf=0.9234 status=variable model=4 CVRwatts=0.8 CVRvars=3 class=1 yearly=Residential conn=wye
New "Load.mdv201_da_8_928_a39733-1a1" phases=1 bus1=x_39733_2.1 kV=0.24 kW=6.6910945 pf=0.9234 status=variable model=4 CVRwatts=0.8 CVRvars=3 class=1 yearly=Residential conn=wye
New "Load.mdv201_da_8_928_a39733-1a2" phases=1 bus1=x_39733_3.1 kV=0.24 kW=6.6910945 pf=0.9234 status=variable model=4 CVRwatts=0.8 CVRvars=3 class=1 yearly=Residential conn=wye
New "Load.mdv201_da_8_928_a39733-1a3" phases=1 bus1=x_39733_4.1 kV=0.24 kW=6.6910945 pf=0.9234 status=variable model=4 CVRwatts=0.8 CVRvars=3 class=1 yearly=Residential conn=wye
New "Load.mdv201_da_8_929_a39734-1a0" phases=1 bus1=x_39734_1.1 kV=0.24 kW=8.41636275 pf=0.9234 status=variable model=4 CVRwatts=0.8 CVRvars=3 class=1 yearly=Residential conn=wye
New "Load.mdv201_da_8_929_a39734-1a1" phases=1 bus1=x_39734_2.1 kV=0.24 kW=8.41636275 pf=0.9234 status=variable model=4 CVRwatts=0.8 CVRvars=3 class=1 yearly=Residential conn=wye
New "Load.mdv201_da_8_929_a39734-1a2" phases=1 bus1=x_39734_3.1 kV=0.24 kW=8.41636275 pf=0.9234 status=variable model=4 CVRwatts=0.8 CVRvars=3 class=1 yearly=Residential conn=wye
New "Load.mdv201_da_8_929_a39734-1a3" phases=1 bus1=x_39734_4.1 kV=0.24 kW=8.41636275 pf=0.9234 status=variable model=4 CVRwatts=0.8 CVRvars=3 class=1 yearly=Residential conn=wye
New "Load.mdv201_da_8_930_a39751-1a0" phases=1 bus1=x_39751_1.1 kV=0.24 kW=6.60282025 pf=0.9234 status=variable model=4 CVRwatts=0.8 CVRvars=3 class=1 yearly=Residential conn=wye
New "Load.mdv201_da_8_930_a39751-1a1" phases=1 bus1=x_39751_2.1 kV=0.24 kW=6.60282025 pf=0.9234 status=variable model=4 CVRwatts=0.8 CVRvars=3 class=1 yearly=Residential conn=wye
New "Load.mdv201_da_8_930_a39751-1a2" phases=1 bus1=x_39751_3.1 kV=0.24 kW=6.60282025 pf=0.9234 status=variable model=4 CVRwatts=0.8 CVRvars=3 class=1 yearly=Residential conn=wye
New "Load.mdv201_da_8_930_a39751-1a3" phases=1 bus1=x_39751_4.1 kV=0.24 kW=6.60282025 pf=0.9234 status=variable model=4 CVRwatts=0.8 CVRvars=3 class=1 yearly=Residential conn=wye
New "Load.mdv201_da_8_931_a74443-1a0" phases=1 bus1=x_74443_1.1 kV=0.24 kW=7.83082666666667 pf=0.9234 status=variable model=4 CVRwatts=0.8 CVRvars=3 class=1 yearly=Residential conn=wye
New "Load.mdv201_da_8_931_a74443-1a1" phases=1 bus1=x_74443_2.1 kV=0.24 kW=7.83082666666667 pf=0.9234 status=variable model=4 CVRwatts=0.8 CVRvars=3 class=1 yearly=Residential conn=wye
New "Load.mdv201_da_8_931_a74443-1a2" phases=1 bus1=x_74443_3.1 kV=0.24 kW=7.83082666666667 pf=0.9234 status=variable model=4 CVRwatts=0.8 CVRvars=3 class=1 yearly=Residential conn=wye
New "Load.mdv201_da_8_148_abc56777-1b0" phases=1 bus1=x_56777_1.2 kV=0.24 kW=3.386036 pf=0.9342 status=variable model=4 CVRwatts=0.8 CVRvars=3 class=1 yearly=Residential conn=wye
New "Load.mdv201_da_8_149_abc56778-1a0" phases=1 bus1=x_56778_1.1 kV=0.24 kW=3.255184 pf=0.9234 status=variable model=4 CVRwatts=0.8 CVRvars=3 class=1 yearly=Residential conn=wye
...
